%chk=JID_6278.chk
%mem=8GB
%nprocshared=4
# opt freq B3LYP/6-31G(d) empiricaldispersion=gd3bj scf=xqc

CID_43145838_JID_6278_neutraal

0 1
C          0.98648       -0.06738       -0.07264
C          0.06557        1.09560        0.30757
C          0.31804        2.27886       -0.62902
C         -1.41784        0.69344        0.25535
N         -1.79688       -0.23779        1.30397
C         -1.74263       -1.59699        1.24903
C         -2.15470       -2.05732        2.48769
C         -2.48420       -0.87591        3.20757
N         -2.26952        0.22685        2.46774
C         -3.00436       -0.75570        4.60694
C         -3.37304        0.42669        5.22725
C         -3.80840        0.09398        6.53294
C         -3.67364       -1.26849        6.63787
O         -3.19318       -1.78750        5.48130
C         -2.20192       -3.45874        2.84219
O         -2.60785       -3.92543        3.89934
H          0.72339       -0.48008       -1.05245
H          0.93622       -0.87376        0.66473
H          2.03014        0.26290       -0.11601
H          0.32000        1.41217        1.32740
H          0.08213        2.02201       -1.66730
H         -0.29602        3.13941       -0.34330
H          1.36699        2.59168       -0.58718
H         -2.06137        1.57485        0.36885
H         -1.67102        0.22837       -0.70484
H         -1.40062       -2.11530        0.36366
H         -3.33496        1.40862        4.77575
H         -4.17342        0.76250        7.29917
H         -3.86673       -1.98565        7.42329
H         -1.82956       -4.13941        2.05690

--Link1--
%chk=JID_6278.chk
%mem=8GB
%nprocshared=4
# B3LYP/6-311++G(d,p) empiricaldispersion=gd3bj scf=xqc pop=npa geom=check

CID_43145838_JID_6278_Energie_neutraal

0 1

--Link1--
%chk=JID_6278.chk
%mem=8GB
%nprocshared=4
# B3LYP/6-311++G(d,p) empiricaldispersion=gd3bj scf=xqc pop=npa geom=check

CID_43145838_JID_6278_Energie_kation

1 2

--Link1--
%chk=JID_6278.chk
%mem=8GB
%nprocshared=4
# B3LYP/6-311++G(d,p) empiricaldispersion=gd3bj scf=xqc pop=npa geom=check

CID_43145838_JID_6278_Energie_anion

-1 2
