%chk=JID_4428.chk
%mem=8GB
%nprocshared=4
# opt freq B3LYP/6-31G(d) empiricaldispersion=gd3bj scf=xqc

CID_66263077_JID_4428_neutraal

0 1
C          1.09400       -1.21800       -0.04600
C          0.71256        0.19879        0.29956
C         -0.10687        0.99441       -0.69043
C         -0.73712        0.53447        0.59815
N         -1.78721       -0.49361        0.53533
C         -3.13479        0.08529        0.65088
C         -4.26268       -0.86800        0.19224
C         -4.27754       -2.19070        0.95841
O         -5.62397       -2.70134        0.89936
C         -6.49870       -1.64665        0.46632
C         -5.68378       -0.34534        0.48332
N         -5.82087        0.31353        1.79448
C         -4.12660       -1.13835       -1.32924
C          1.77602        0.94099        1.06911
H          0.38419       -1.69186       -0.73141
H          2.07500       -1.23869       -0.53280
H          1.15069       -1.82684        0.86227
H          0.08915        2.05557       -0.79964
H         -0.40282        0.51890       -1.61857
H         -0.89297        1.28537        1.37229
H         -1.70167       -1.02373       -0.32777
H         -3.27137        0.36857        1.70072
H         -3.19909        1.00799        0.05908
H         -3.59824       -2.94101        0.54130
H         -4.02710       -2.05891        2.01705
H         -7.38104       -1.62030        1.11423
H         -6.84506       -1.88732       -0.54449
H         -6.03898        0.35597       -0.27902
H         -6.79561        0.57919        1.93972
H         -5.61945       -0.36289        2.53489
H         -4.13804       -0.19641       -1.88964
H         -3.19632       -1.66122       -1.57204
H         -4.93763       -1.76001       -1.72077
H          2.69990        0.99497        0.48334
H          1.47209        1.96657        1.30565
H          1.99345        0.42809        2.01134

--Link1--
%chk=JID_4428.chk
%mem=8GB
%nprocshared=4
# B3LYP/6-311++G(d,p) empiricaldispersion=gd3bj scf=xqc pop=npa geom=check

CID_66263077_JID_4428_Energie_neutraal

0 1

--Link1--
%chk=JID_4428.chk
%mem=8GB
%nprocshared=4
# B3LYP/6-311++G(d,p) empiricaldispersion=gd3bj scf=xqc pop=npa geom=check

CID_66263077_JID_4428_Energie_kation

1 2

--Link1--
%chk=JID_4428.chk
%mem=8GB
%nprocshared=4
# B3LYP/6-311++G(d,p) empiricaldispersion=gd3bj scf=xqc pop=npa geom=check

CID_66263077_JID_4428_Energie_anion

-1 2
