%chk=JID_10992.chk
%mem=8GB
%nprocshared=4
# opt freq B3LYP/6-31G(d) empiricaldispersion=gd3bj scf=xqc

CID_60712996_JID_10992_neutraal

0 1
C          2.22400        0.03500        0.00200
C          0.75934       -0.04178        0.12012
C         -0.20251       -0.88364       -0.38145
C         -1.41790       -0.34745        0.10199
N         -1.20132        0.73210        0.86873
O          0.16674        0.92315        0.87059
C         -2.82202       -0.80973       -0.15718
N         -3.68299       -0.90189        1.03258
C         -5.02628       -0.52325        0.89011
C         -5.69148        0.02339        1.99923
C         -7.02798        0.42259        1.91953
C         -7.72040        0.24614        0.72348
C         -7.10475       -0.36465       -0.36988
C         -5.77037       -0.76942       -0.27171
S         -9.39630        0.80608        0.57760
O         -9.92637        1.02582        1.90714
O         -9.40126        1.85597       -0.41894
N        -10.21416       -0.55328       -0.07103
C        -10.29178       -1.72213        0.83396
C        -11.54208       -0.20772       -0.62775
H          2.50534        0.71221       -0.81008
H          2.67426        0.40366        0.92898
H          2.65015       -0.95041       -0.21043
H         -0.05268       -1.74413       -1.01605
H         -3.23838       -0.10871       -0.89319
H         -2.79440       -1.79757       -0.63330
H         -3.24508       -0.37985        1.79467
H         -5.15740        0.17107        2.93565
H         -7.50587        0.88080        2.78207
H         -7.65333       -0.52207       -1.29554
H         -5.31904       -1.26573       -1.12605
H        -10.96575       -1.52746        1.67348
H        -10.66930       -2.58724        0.27873
H         -9.30441       -1.99504        1.21460
H        -12.20796        0.17414        0.15203
H        -11.44190        0.53664       -1.42317
H        -12.00153       -1.09462       -1.07579

--Link1--
%chk=JID_10992.chk
%mem=8GB
%nprocshared=4
# B3LYP/6-311++G(d,p) empiricaldispersion=gd3bj scf=xqc pop=npa geom=check

CID_60712996_JID_10992_Energie_neutraal

0 1

--Link1--
%chk=JID_10992.chk
%mem=8GB
%nprocshared=4
# B3LYP/6-311++G(d,p) empiricaldispersion=gd3bj scf=xqc pop=npa geom=check

CID_60712996_JID_10992_Energie_kation

1 2

--Link1--
%chk=JID_10992.chk
%mem=8GB
%nprocshared=4
# B3LYP/6-311++G(d,p) empiricaldispersion=gd3bj scf=xqc pop=npa geom=check

CID_60712996_JID_10992_Energie_anion

-1 2
