%chk=JID_5986.chk
%mem=8GB
%nprocshared=4
# opt freq B3LYP/6-31G(d) empiricaldispersion=gd3bj scf=xqc

CID_114290388_JID_5986_neutraal

0 1
C          0.97267        0.06918        0.06684
C          0.57126        1.44475        0.60179
C          1.07098        2.68074       -0.24321
C          0.67088        2.41500       -1.71014
C          0.31974        3.93510        0.29325
N          0.66881        4.35042        1.64940
C          2.62178        2.80651       -0.06595
O          3.16142        2.08602        0.78529
N          3.39976        3.68405       -0.81960
C          2.90854        4.64630       -1.79573
C          4.87717        3.65033       -0.70995
C          5.43468        3.69204        0.71684
C          5.55465        2.58644       -1.54903
C          5.32865        1.10466       -1.36385
C          4.85321        1.78022       -2.61943
H          0.47804       -0.15284       -0.88334
H          0.66729       -0.70564        0.77811
H          2.05215       -0.01995       -0.07882
H         -0.52528        1.46395        0.66039
H          0.92835        1.51972        1.63634
H         -0.33407        1.98015       -1.77067
H          0.63218        3.31871       -2.32093
H          1.36908        1.72521       -2.19593
H          0.46341        4.80374       -0.35050
H         -0.75980        3.73687        0.26955
H          0.00196        5.04340        1.98542
H          0.61939        3.56300        2.29494
H          3.38707        5.61514       -1.61843
H          3.16794        4.29587       -2.79864
H          1.84258        4.81681       -1.74799
H          5.21706        4.59938       -1.14832
H          5.38979        2.71985        1.21605
H          6.49361        3.97521        0.69800
H          4.89946        4.42555        1.32856
H          6.58149        2.88023       -1.75519
H          6.19133        0.45104       -1.43124
H          4.58606        0.76043       -0.65596
H          3.78381        1.87017       -2.75567
H          5.39485        1.57959       -3.53694

--Link1--
%chk=JID_5986.chk
%mem=8GB
%nprocshared=4
# B3LYP/6-311++G(d,p) empiricaldispersion=gd3bj scf=xqc pop=npa geom=check

CID_114290388_JID_5986_Energie_neutraal

0 1

--Link1--
%chk=JID_5986.chk
%mem=8GB
%nprocshared=4
# B3LYP/6-311++G(d,p) empiricaldispersion=gd3bj scf=xqc pop=npa geom=check

CID_114290388_JID_5986_Energie_kation

1 2

--Link1--
%chk=JID_5986.chk
%mem=8GB
%nprocshared=4
# B3LYP/6-311++G(d,p) empiricaldispersion=gd3bj scf=xqc pop=npa geom=check

CID_114290388_JID_5986_Energie_anion

-1 2
