%chk=JID_8374.chk
%mem=8GB
%nprocshared=4
# opt freq B3LYP/6-31G(d) empiricaldispersion=gd3bj scf=xqc

CID_104316888_JID_8374_neutraal

0 1
C          1.09241        0.03718       -0.00878
C          1.41503        1.23114       -0.90049
C          0.89449        1.11114       -2.34188
C         -0.57665        0.70411       -2.46106
O         -1.39056        1.62580       -1.72408
C         -2.39134        1.04413       -0.99888
C         -3.13841       -0.05782       -1.39005
N         -4.05059       -0.67249       -0.60048
C         -4.25890       -0.14907        0.63414
C         -3.59734        0.99650        1.07806
C         -2.66380        1.60368        0.24350
C         -5.19933       -0.88802        1.57173
N         -6.41653       -0.13085        1.88419
C         -7.17536       -0.60594        3.05347
C         -6.45610       -0.23091        4.36168
C         -8.52718        0.12962        3.01308
C         -7.44140       -2.11980        3.01594
O          0.90944        2.41455       -0.28641
H          0.02421       -0.03921        0.20919
H          1.58992        0.15185        0.96083
H          1.43272       -0.89874       -0.46173
H          2.50380        1.34890       -0.94158
H          1.02203        2.08417       -2.83289
H          1.50202        0.38030       -2.88828
H         -0.88493        0.74079       -3.51199
H         -0.67838       -0.33135       -2.11365
H         -3.02110       -0.50981       -2.36971
H         -3.78037        1.39653        2.07006
H         -2.12473        2.48238        0.58500
H         -5.47444       -1.83891        1.10071
H         -4.62252       -1.12598        2.47238
H         -6.19528        0.85652        1.99474
H         -6.24445        0.84392        4.40733
H         -7.07329       -0.48038        5.23256
H         -5.50590       -0.76270        4.47686
H         -9.08169       -0.10452        2.09649
H         -9.15803       -0.15703        3.86250
H         -8.39523        1.21751        3.05525
H         -7.92017       -2.41669        2.07576
H         -6.51882       -2.70088        3.12394
H         -8.10679       -2.42036        3.83364
H         -0.03052        2.48869       -0.53688

--Link1--
%chk=JID_8374.chk
%mem=8GB
%nprocshared=4
# B3LYP/6-311++G(d,p) empiricaldispersion=gd3bj scf=xqc pop=npa geom=check

CID_104316888_JID_8374_Energie_neutraal

0 1

--Link1--
%chk=JID_8374.chk
%mem=8GB
%nprocshared=4
# B3LYP/6-311++G(d,p) empiricaldispersion=gd3bj scf=xqc pop=npa geom=check

CID_104316888_JID_8374_Energie_kation

1 2

--Link1--
%chk=JID_8374.chk
%mem=8GB
%nprocshared=4
# B3LYP/6-311++G(d,p) empiricaldispersion=gd3bj scf=xqc pop=npa geom=check

CID_104316888_JID_8374_Energie_anion

-1 2
