%chk=JID_8996.chk
%mem=8GB
%nprocshared=4
# opt freq B3LYP/6-31G(d) empiricaldispersion=gd3bj scf=xqc

CID_111177952_JID_8996_neutraal

0 1
C          0.93647       -0.05326       -0.05593
C          0.43471        0.19607        1.35628
N          0.41496        1.62961        1.62041
C         -0.07891        2.13053        2.79064
N          0.41354        3.04607        3.54472
C          1.64394        3.76256        3.21634
C          2.81934        3.32086        4.12030
C          3.12012        1.82237        3.89516
C          4.07596        4.11485        3.69949
C          2.54046        3.53614        5.63920
N          2.40757        4.95201        6.04485
C          1.00023        5.31608        6.23790
C          3.14718        5.21223        7.28176
N         -1.24725        1.56935        3.21695
C         -2.44808        1.67282        2.38967
C         -3.52364        0.69191        2.88461
C         -4.08585        1.09865        4.24880
C         -4.65976        0.60264        1.86359
H          0.28761        0.43126       -0.79324
H          0.95742       -1.12636       -0.26941
H          1.94924        0.34152       -0.19002
H         -0.56085       -0.24679        1.45841
H          1.09793       -0.29909        2.07431
H          1.29578        2.05091        1.36052
H          1.92305        3.66922        2.16160
H          1.45397        4.83428        3.34669
H          3.29277        1.60705        2.83480
H          4.01807        1.51369        4.44295
H          2.29645        1.18830        4.23988
H          3.91487        5.19585        3.77309
H          4.93529        3.85974        4.32994
H          4.35087        3.89593        2.66117
H          1.66779        2.94949        5.95756
H          3.38596        3.08537        6.17962
H          0.53070        4.73685        7.04171
H          0.91469        6.37932        6.49001
H          0.41414        5.17087        5.32730
H          2.78814        4.59881        8.11620
H          4.21544        5.01365        7.13865
H          3.06458        6.26715        7.56683
H         -1.43277        1.96865        4.13402
H         -2.82274        2.70343        2.41740
H         -2.21040        1.44685        1.34387
H         -3.07811       -0.30659        2.98313
H         -4.51650        2.10522        4.21669
H         -4.87250        0.40530        4.56558
H         -3.30951        1.08528        5.02003
H         -4.28418        0.26415        0.89206
H         -5.42298       -0.11117        2.19134
H         -5.14324        1.57505        1.72061

--Link1--
%chk=JID_8996.chk
%mem=8GB
%nprocshared=4
# B3LYP/6-311++G(d,p) empiricaldispersion=gd3bj scf=xqc pop=npa geom=check

CID_111177952_JID_8996_Energie_neutraal

0 1

--Link1--
%chk=JID_8996.chk
%mem=8GB
%nprocshared=4
# B3LYP/6-311++G(d,p) empiricaldispersion=gd3bj scf=xqc pop=npa geom=check

CID_111177952_JID_8996_Energie_kation

1 2

--Link1--
%chk=JID_8996.chk
%mem=8GB
%nprocshared=4
# B3LYP/6-311++G(d,p) empiricaldispersion=gd3bj scf=xqc pop=npa geom=check

CID_111177952_JID_8996_Energie_anion

-1 2
