%chk=JID_10360.chk
%mem=8GB
%nprocshared=4
# opt freq B3LYP/6-31G(d) empiricaldispersion=gd3bj scf=xqc

CID_81337069_JID_10360_neutraal

0 1
C          0.90488        0.02336       -0.02014
C          0.16949        0.06281        1.32801
C          0.80737        1.22621        2.13326
C         -1.31382        0.42596        1.12085
C          0.28292       -1.24617        2.11162
C          0.67462       -1.42261        3.43244
N          0.50457       -2.70508        3.85455
C          0.01010       -3.33934        2.82362
N         -0.05377       -2.53835        1.70134
C         -0.44587       -2.97447        0.37187
C          0.71928       -3.42320       -0.52269
C          1.31705       -4.79048       -0.19158
C          0.34640       -5.93330       -0.40307
O         -0.75716       -5.81924       -0.92212
N          0.80620       -7.14625        0.01639
S         -0.49291       -4.99488        2.92771
C         -2.29772       -4.85529        2.90915
C         -2.80731       -3.67754        3.69211
O         -3.19553       -2.62099        3.21586
O         -2.81603       -3.87674        5.02411
H          0.95956        1.02234       -0.46971
H          0.40225       -0.60765       -0.75607
H          1.93164       -0.34129        0.09743
H          0.74054        2.17334        1.58443
H          0.30363        1.37891        3.09511
H          1.86869        1.03790        2.33526
H         -1.84576       -0.31233        0.51492
H         -1.84146        0.49485        2.07988
H         -1.41618        1.39312        0.61506
H          1.03409       -0.66873        4.12167
H         -1.20490       -3.75208        0.46554
H         -0.96566       -2.14391       -0.10756
H          0.36138       -3.43990       -1.56001
H          1.52852       -2.68648       -0.48214
H          2.17005       -4.96833       -0.85822
H          1.70010       -4.81105        0.83265
H          1.59214       -7.22752        0.64774
H          0.16127       -7.92448       -0.03425
H         -2.65684       -4.76934        1.87920
H         -2.73951       -5.77124        3.31501
H         -3.05938       -3.00301        5.39521

--Link1--
%chk=JID_10360.chk
%mem=8GB
%nprocshared=4
# B3LYP/6-311++G(d,p) empiricaldispersion=gd3bj scf=xqc pop=npa geom=check

CID_81337069_JID_10360_Energie_neutraal

0 1

--Link1--
%chk=JID_10360.chk
%mem=8GB
%nprocshared=4
# B3LYP/6-311++G(d,p) empiricaldispersion=gd3bj scf=xqc pop=npa geom=check

CID_81337069_JID_10360_Energie_kation

1 2

--Link1--
%chk=JID_10360.chk
%mem=8GB
%nprocshared=4
# B3LYP/6-311++G(d,p) empiricaldispersion=gd3bj scf=xqc pop=npa geom=check

CID_81337069_JID_10360_Energie_anion

-1 2
