%chk=JID_6288.chk
%mem=8GB
%nprocshared=4
# opt freq B3LYP/6-31G(d) empiricaldispersion=gd3bj scf=xqc

CID_65044301_JID_6288_neutraal

0 1
C          0.96677        0.06431       -0.06899
S          0.90001        1.82575       -0.34944
O          2.08090        2.18939       -1.10928
O         -0.42994        2.11288       -0.85588
C          1.01115        2.48975        1.28843
C          2.34103        2.27489        2.00101
C          2.35083        3.32567        3.11773
C          1.09947        4.18679        2.89794
C          0.74351        3.99623        1.41174
N          1.61831        4.85757        0.59841
C          1.07041        6.21156        0.45230
C          2.15809        7.29291        0.46764
C          3.31920        7.09026       -0.50176
C          2.86508        7.02419       -1.93831
O          2.75605        8.01430       -2.65208
N          2.56258        5.77570       -2.39040
H          0.84006       -0.43545       -1.03175
H          0.15761       -0.21763        0.60694
H          1.93852       -0.19051        0.35678
H          0.22439        1.96560        1.85110
H          2.42733        1.26070        2.40355
H          3.19446        2.43168        1.33135
H          3.25955        3.93497        3.05022
H          2.33859        2.86334        4.10968
H          1.26768        5.22994        3.18538
H          0.28089        3.80906        3.52357
H         -0.31242        4.20887        1.20773
H          2.55018        4.89989        1.01094
H          0.49839        6.26213       -0.48090
H          0.36802        6.45180        1.26039
H          1.67976        8.25835        0.25863
H          2.56860        7.36439        1.48322
H          4.02166        7.92782       -0.41130
H          3.89199        6.18916       -0.25562
H          2.38159        5.00771       -1.74682
H          2.16760        5.69894       -3.31772

--Link1--
%chk=JID_6288.chk
%mem=8GB
%nprocshared=4
# B3LYP/6-311++G(d,p) empiricaldispersion=gd3bj scf=xqc pop=npa geom=check

CID_65044301_JID_6288_Energie_neutraal

0 1

--Link1--
%chk=JID_6288.chk
%mem=8GB
%nprocshared=4
# B3LYP/6-311++G(d,p) empiricaldispersion=gd3bj scf=xqc pop=npa geom=check

CID_65044301_JID_6288_Energie_kation

1 2

--Link1--
%chk=JID_6288.chk
%mem=8GB
%nprocshared=4
# B3LYP/6-311++G(d,p) empiricaldispersion=gd3bj scf=xqc pop=npa geom=check

CID_65044301_JID_6288_Energie_anion

-1 2
