%chk=JID_10216.chk
%mem=8GB
%nprocshared=4
# opt freq B3LYP/6-31G(d) empiricaldispersion=gd3bj scf=xqc

CID_105952519_JID_10216_neutraal

0 1
C          1.06477       -0.04397        0.06222
C          0.12785        0.74946       -0.86090
C          0.82330        1.09898       -2.21742
N          1.24153       -0.05634       -3.01632
C          1.80884        0.29265       -4.31940
C          3.21170        0.92855       -4.26935
S          4.38345       -0.37243       -4.62987
O          5.30419        0.07927       -5.65126
O          4.81431       -0.98248       -3.38956
C          3.21081       -1.42901       -5.36921
C          3.50640       -2.55881       -6.11138
C          2.43576       -3.26150       -6.66072
C          1.11772       -2.81893       -6.46138
C          0.85274       -1.66398       -5.71559
C          1.91610       -0.95177       -5.17296
N         -1.22472        0.13988       -0.91866
C         -2.19477        1.02734       -1.56314
C         -1.28756       -1.22124       -1.48434
C         -1.09151       -2.41816       -0.59250
C         -2.45548       -2.10586       -1.12319
H          1.31779       -1.02929       -0.33996
H          0.60974       -0.18579        1.04892
H          2.00294        0.50184        0.21271
H         -0.00528        1.71393       -0.34896
H          0.15327        1.73308       -2.80902
H          1.69932        1.71589       -1.98367
H          1.87977       -0.64788       -2.48195
H          1.12943        0.98944       -4.82745
H          3.31119        1.67429       -5.06632
H          3.47194        1.39677       -3.31797
H          4.53122       -2.88454       -6.25892
H          2.61982       -4.16009       -7.24553
H          0.29203       -3.38459       -6.88840
H         -0.17199       -1.33928       -5.55433
H         -2.02775        1.11383       -2.64205
H         -3.21366        0.65314       -1.41350
H         -2.16702        2.02970       -1.12187
H         -0.94665       -1.31517       -2.51327
H         -0.56285       -3.26863       -1.00551
H         -0.91879       -2.25699        0.46481
H         -3.19233       -1.73302       -0.42164
H         -2.86018       -2.74735       -1.89642

--Link1--
%chk=JID_10216.chk
%mem=8GB
%nprocshared=4
# B3LYP/6-311++G(d,p) empiricaldispersion=gd3bj scf=xqc pop=npa geom=check

CID_105952519_JID_10216_Energie_neutraal

0 1

--Link1--
%chk=JID_10216.chk
%mem=8GB
%nprocshared=4
# B3LYP/6-311++G(d,p) empiricaldispersion=gd3bj scf=xqc pop=npa geom=check

CID_105952519_JID_10216_Energie_kation

1 2

--Link1--
%chk=JID_10216.chk
%mem=8GB
%nprocshared=4
# B3LYP/6-311++G(d,p) empiricaldispersion=gd3bj scf=xqc pop=npa geom=check

CID_105952519_JID_10216_Energie_anion

-1 2
