%chk=JID_10273.chk
%mem=8GB
%nprocshared=4
# opt freq B3LYP/6-31G(d) empiricaldispersion=gd3bj scf=xqc

CID_78957652_JID_10273_neutraal

0 1
C          1.03961        0.05720        0.07183
C          0.97317       -1.28051       -0.64428
O          1.40779       -2.32065        0.23974
C          2.71564       -2.66927        0.05063
C          3.15648       -3.25844       -1.13139
C          4.49795       -3.62612       -1.26234
C          5.40096       -3.41675       -0.21208
C          4.93232       -2.87398        0.98816
C          3.59097       -2.50380        1.11975
S          7.09613       -3.92093       -0.45208
C          8.02629       -2.52165        0.25960
C          7.64313       -1.19081       -0.35999
O          6.98654       -0.35534        0.26563
N          8.04619       -0.87385       -1.62584
C          8.97372       -1.58519       -2.48814
C          8.44094       -1.52426       -3.91794
C          9.49991       -1.99372       -4.93765
O          9.82005       -0.62281       -5.28221
C          8.61395       -0.16269       -4.62259
C          7.08489       -2.19328       -4.10784
H          0.46568        0.02514        1.00376
H          0.64215        0.85603       -0.56065
H          2.07184        0.30456        0.33992
H         -0.06767       -1.49854       -0.90691
H          1.53984       -1.23877       -1.58206
H          2.46403       -3.44576       -1.94628
H          4.83003       -4.08188       -2.19211
H          5.59340       -2.73161        1.83778
H          3.23338       -2.07972        2.05386
H          7.85971       -2.47406        1.34035
H          9.09807       -2.69267        0.11948
H          7.77435        0.06935       -1.88021
H          9.10335       -2.61959       -2.16394
H          9.94318       -1.08333       -2.39254
H         10.36749       -2.52118       -4.52984
H          9.12931       -2.53758       -5.81314
H          7.84583        0.10558       -5.35554
H          8.81254        0.69798       -3.97758
H          6.77273       -2.17791       -5.15811
H          7.11761       -3.24053       -3.78986
H          6.30461       -1.68546       -3.53160

--Link1--
%chk=JID_10273.chk
%mem=8GB
%nprocshared=4
# B3LYP/6-311++G(d,p) empiricaldispersion=gd3bj scf=xqc pop=npa geom=check

CID_78957652_JID_10273_Energie_neutraal

0 1

--Link1--
%chk=JID_10273.chk
%mem=8GB
%nprocshared=4
# B3LYP/6-311++G(d,p) empiricaldispersion=gd3bj scf=xqc pop=npa geom=check

CID_78957652_JID_10273_Energie_kation

1 2

--Link1--
%chk=JID_10273.chk
%mem=8GB
%nprocshared=4
# B3LYP/6-311++G(d,p) empiricaldispersion=gd3bj scf=xqc pop=npa geom=check

CID_78957652_JID_10273_Energie_anion

-1 2
