%chk=JID_10836.chk
%mem=8GB
%nprocshared=4
# opt freq B3LYP/6-31G(d) empiricaldispersion=gd3bj scf=xqc

CID_105847059_JID_10836_neutraal

0 1
C          1.04270       -0.05044       -0.07505
C          2.44247        0.34082        0.35179
O          2.77190        1.57606       -0.28218
C          4.09307        2.09950       -0.00526
C          5.21375        1.61959       -0.95227
C          5.26770        3.00206       -1.62733
C          4.35819        3.56510       -0.47313
C          5.19759        4.34331        0.55812
C          3.11066        4.37969       -0.82146
N          4.70129        3.13921       -2.95689
C          5.13096        4.12150       -3.83097
C          4.40474        3.88089       -4.99234
C          4.58746        4.71078       -6.10968
C          5.50266        5.77375       -6.03696
C          6.20634        6.00323       -4.84776
C          6.04278        5.18101       -3.72510
C          5.66736        6.69889       -7.20719
N          3.56291        2.81226       -4.83990
C          3.73064        2.39858       -3.60718
N          3.02270        1.39785       -3.05625
H          0.32444        0.73115        0.19381
H          0.73852       -0.98809        0.39837
H          0.98937       -0.17123       -1.16198
H          2.48429        0.46837        1.43838
H          3.16203       -0.42745        0.05106
H          4.33909        1.94305        1.05338
H          4.98905        0.75299       -1.57882
H          6.13985        1.37545       -0.41463
H          6.26862        3.45196       -1.58575
H          4.61225        4.55034        1.46077
H          6.08900        3.78361        0.86304
H          5.53121        5.30027        0.14202
H          2.44401        3.85750       -1.51284
H          2.52741        4.59860        0.08005
H          3.38540        5.33497       -1.28178
H          4.01009        4.52116       -7.00854
H          6.89879        6.84132       -4.78305
H          6.59496        5.37825       -2.81269
H          5.52001        6.16385       -8.15122
H          4.93909        7.51339       -7.14417
H          6.67527        7.12615       -7.22958
H          2.22275        1.11019       -3.61230
H          2.76723        1.47624       -2.06970

--Link1--
%chk=JID_10836.chk
%mem=8GB
%nprocshared=4
# B3LYP/6-311++G(d,p) empiricaldispersion=gd3bj scf=xqc pop=npa geom=check

CID_105847059_JID_10836_Energie_neutraal

0 1

--Link1--
%chk=JID_10836.chk
%mem=8GB
%nprocshared=4
# B3LYP/6-311++G(d,p) empiricaldispersion=gd3bj scf=xqc pop=npa geom=check

CID_105847059_JID_10836_Energie_kation

1 2

--Link1--
%chk=JID_10836.chk
%mem=8GB
%nprocshared=4
# B3LYP/6-311++G(d,p) empiricaldispersion=gd3bj scf=xqc pop=npa geom=check

CID_105847059_JID_10836_Energie_anion

-1 2
