%chk=JID_3541.chk
%mem=8GB
%nprocshared=4
# opt freq B3LYP/6-31G(d) empiricaldispersion=gd3bj scf=xqc

CID_88993522_JID_3541_neutraal

0 1
C          1.01027        0.05595        0.08225
C         -0.01101       -0.08452       -1.03832
C          0.36979       -1.17449       -2.02589
C          1.11379       -0.84927       -3.18774
C          1.42795       -1.85588       -4.10964
C          1.04245       -3.17375       -3.88626
C          0.33699       -3.52604       -2.72933
C         -0.01084       -2.52670       -1.79036
N         -0.80120       -2.85440       -0.66003
C         -2.11645       -3.24147       -0.74232
C         -2.99144       -3.27813        0.26593
C         -0.02480       -4.97422       -2.52981
C          1.54738        0.55894       -3.49959
H          1.10975       -0.87039        0.65692
H          0.70544        0.84940        0.77201
H          2.00050        0.31077       -0.30902
H         -1.00331       -0.28152       -0.61642
H         -0.12544        0.87705       -1.55068
H          1.98071       -1.61951       -5.01653
H          1.30594       -3.93174       -4.62050
H         -0.58231       -2.31808        0.17202
H         -2.43890       -3.52650       -1.74225
H         -4.01469       -3.59555        0.09491
H         -2.71028       -3.00266        1.27596
H          0.07082       -5.26633       -1.47917
H         -1.04703       -5.16128       -2.87147
H          0.64797       -5.62822       -3.09584
H          0.67889        1.17275       -3.75816
H          2.07257        1.00267       -2.64874
H          2.23964        0.58723       -4.34821

--Link1--
%chk=JID_3541.chk
%mem=8GB
%nprocshared=4
# B3LYP/6-311++G(d,p) empiricaldispersion=gd3bj scf=xqc pop=npa geom=check

CID_88993522_JID_3541_Energie_neutraal

0 1

--Link1--
%chk=JID_3541.chk
%mem=8GB
%nprocshared=4
# B3LYP/6-311++G(d,p) empiricaldispersion=gd3bj scf=xqc pop=npa geom=check

CID_88993522_JID_3541_Energie_kation

1 2

--Link1--
%chk=JID_3541.chk
%mem=8GB
%nprocshared=4
# B3LYP/6-311++G(d,p) empiricaldispersion=gd3bj scf=xqc pop=npa geom=check

CID_88993522_JID_3541_Energie_anion

-1 2
