%chk=JID_7461.chk
%mem=8GB
%nprocshared=4
# opt freq B3LYP/6-31G(d) empiricaldispersion=gd3bj scf=xqc

CID_112005169_JID_7461_neutraal

0 1
C          0.95007        0.06570        0.05648
N          0.39449        0.75404        1.21988
C         -1.02024        1.05562        1.01458
C          0.64293        0.02547        2.47556
C          0.04245       -1.39290        2.64683
N          1.05745       -2.45346        2.77614
C          1.75635       -2.51094        4.05320
C          1.27353       -3.29211        1.69284
O          0.58363       -3.21036        0.67151
C          2.37380       -4.34045        1.73332
C          3.72995       -3.93743        1.11804
C          3.59336       -3.38265       -0.31947
C          4.82876       -2.58863       -0.74253
C          5.06210       -1.37642        0.16156
C          4.53331       -1.56097        1.58447
C          4.57898       -3.01757        2.02148
O          4.46432       -5.18214        1.03601
H          0.41321       -0.85446       -0.18734
H          2.00725       -0.16884        0.20687
H          0.90210        0.71892       -0.82237
H         -1.62968        0.15895        0.86108
H         -1.42648        1.60599        1.87033
H         -1.14747        1.70325        0.13958
H          1.72638        0.00329        2.64014
H          0.25824        0.64829        3.29467
H         -0.57022       -1.41705        3.55694
H         -0.64651       -1.63133        1.83133
H          2.30017       -3.44147        4.19978
H          2.45736       -1.67423        4.11181
H          1.02621       -2.42341        4.86370
H          2.50581       -4.75655        2.73511
H          1.98093       -5.20038        1.16891
H          3.43542       -4.20448       -1.02815
H          2.73710       -2.70760       -0.40929
H          4.72287       -2.25350       -1.78088
H          5.71216       -3.23764       -0.71730
H          4.58810       -0.48955       -0.27639
H          6.13740       -1.16232        0.18991
H          3.50283       -1.20007        1.63946
H          5.11495       -0.93923        2.27454
H          4.27366       -3.10747        3.06775
H          5.62866       -3.34300        2.01090
H          5.27170       -5.02737        0.51642

--Link1--
%chk=JID_7461.chk
%mem=8GB
%nprocshared=4
# B3LYP/6-311++G(d,p) empiricaldispersion=gd3bj scf=xqc pop=npa geom=check

CID_112005169_JID_7461_Energie_neutraal

0 1

--Link1--
%chk=JID_7461.chk
%mem=8GB
%nprocshared=4
# B3LYP/6-311++G(d,p) empiricaldispersion=gd3bj scf=xqc pop=npa geom=check

CID_112005169_JID_7461_Energie_kation

1 2

--Link1--
%chk=JID_7461.chk
%mem=8GB
%nprocshared=4
# B3LYP/6-311++G(d,p) empiricaldispersion=gd3bj scf=xqc pop=npa geom=check

CID_112005169_JID_7461_Energie_anion

-1 2
