%chk=JID_7352.chk
%mem=8GB
%nprocshared=4
# opt freq B3LYP/6-31G(d) empiricaldispersion=gd3bj scf=xqc

CID_3646180_JID_7352_neutraal

0 1
C          2.49200        0.00400       -0.01400
C          1.21917       -0.40330        0.67950
C          0.82190       -1.75202        0.75624
C         -0.40890       -2.12195        1.32388
C         -1.23813       -1.16149        1.89913
C         -0.84558        0.17353        1.89717
C          0.37124        0.53888        1.29622
N          0.72912        1.95226        1.34266
O         -0.12427        2.76372        0.95978
O          1.84572        2.24195        1.79259
C          1.60316       -2.82177        0.11798
O          1.42597       -3.03635       -1.07793
N          2.50096       -3.57086        0.82666
C          2.96210       -3.57101        2.23087
C          4.02561       -4.68253        2.35999
C          3.62404       -2.24094        2.61280
C          1.82533       -3.89694        3.20868
H          3.27889        0.19971        0.72042
H          2.85808       -0.76114       -0.70405
H          2.33188        0.90192       -0.62036
H         -0.72051       -3.16515        1.31052
H         -2.18725       -1.45402        2.34244
H         -1.49026        0.92345        2.35272
H          2.93715       -4.25354        0.21574
H          4.86867       -4.50259        1.68241
H          4.42257       -4.74466        3.37951
H          3.60493       -5.66210        2.10348
H          4.38296       -1.95121        1.87738
H          2.89770       -1.42767        2.68238
H          4.11373       -2.30999        3.59111
H          1.12136       -3.06815        3.31058
H          1.26237       -4.77881        2.88306
H          2.21473       -4.09858        4.21347

--Link1--
%chk=JID_7352.chk
%mem=8GB
%nprocshared=4
# B3LYP/6-311++G(d,p) empiricaldispersion=gd3bj scf=xqc pop=npa geom=check

CID_3646180_JID_7352_Energie_neutraal

0 1

--Link1--
%chk=JID_7352.chk
%mem=8GB
%nprocshared=4
# B3LYP/6-311++G(d,p) empiricaldispersion=gd3bj scf=xqc pop=npa geom=check

CID_3646180_JID_7352_Energie_kation

1 2

--Link1--
%chk=JID_7352.chk
%mem=8GB
%nprocshared=4
# B3LYP/6-311++G(d,p) empiricaldispersion=gd3bj scf=xqc pop=npa geom=check

CID_3646180_JID_7352_Energie_anion

-1 2
