%chk=JID_10162.chk
%mem=8GB
%nprocshared=4
# opt freq B3LYP/6-31G(d) empiricaldispersion=gd3bj scf=xqc

CID_54750155_JID_10162_neutraal

0 1
C         -1.39600       -2.65900        0.02000
C         -0.62825       -1.40853        0.33355
C         -1.38202       -0.23156        0.52299
C         -0.76293        0.99066        0.76184
C          0.61629        1.08268        0.82506
C          1.37551       -0.07224        0.65384
C          0.77604       -1.33402        0.43520
C          1.70952       -2.50001        0.32532
O          2.81493       -2.29137       -0.18756
C          1.36695       -3.87867        0.87211
C          0.80138       -3.94491        2.26131
C          1.04373       -3.09122        3.26770
C          0.39284       -3.30045        4.53114
C         -0.42233       -4.33696        4.73027
C         -0.68400       -5.29486        3.64838
O         -1.43136       -6.25045        3.82167
O         -0.06721       -5.05644        2.45102
O          0.63124       -2.39025        5.53271
O          2.73593        0.10638        0.71972
O         -1.55890        2.08588        0.91352
H         -1.53258       -3.26977        0.91434
H         -2.39384       -2.42141       -0.36734
H         -0.90249       -3.23319       -0.76880
H         -2.46952       -0.25739        0.46480
H          1.11669        2.03029        0.99538
H          0.70913       -4.37562        0.15296
H          2.29452       -4.46672        0.87271
H          1.72201       -2.25309        3.15037
H         -0.92150       -4.51126        5.67349
H          1.19608       -1.67321        5.19828
H          3.16171       -0.67135        0.29101
H         -0.99563        2.87173        1.01514

--Link1--
%chk=JID_10162.chk
%mem=8GB
%nprocshared=4
# B3LYP/6-311++G(d,p) empiricaldispersion=gd3bj scf=xqc pop=npa geom=check

CID_54750155_JID_10162_Energie_neutraal

0 1

--Link1--
%chk=JID_10162.chk
%mem=8GB
%nprocshared=4
# B3LYP/6-311++G(d,p) empiricaldispersion=gd3bj scf=xqc pop=npa geom=check

CID_54750155_JID_10162_Energie_kation

1 2

--Link1--
%chk=JID_10162.chk
%mem=8GB
%nprocshared=4
# B3LYP/6-311++G(d,p) empiricaldispersion=gd3bj scf=xqc pop=npa geom=check

CID_54750155_JID_10162_Energie_anion

-1 2
