%chk=JID_6565.chk
%mem=8GB
%nprocshared=4
# opt freq B3LYP/6-31G(d) empiricaldispersion=gd3bj scf=xqc

CID_116593747_JID_6565_neutraal

0 1
C          2.49200        0.00400       -0.01400
C          1.05196       -0.06863       -0.42917
C          0.31010       -1.23835       -0.21347
C         -1.02764       -1.33258       -0.63027
C         -1.60922       -0.25598       -1.30284
C         -0.87307        0.90895       -1.53141
C          0.45005        1.00163       -1.09855
C         -1.74481       -2.61426       -0.36766
O         -1.07891       -3.65448       -0.36851
C         -3.24576       -2.65803       -0.03681
C         -3.60033       -2.06096        1.33436
C         -3.72154       -0.53943        1.48685
C         -4.85537        0.12988        0.71389
O         -6.07237       -0.58738        0.91596
C         -7.15806        0.02248        0.22979
N         -4.08051       -2.21530       -1.16087
H          2.66916       -0.59466        0.88567
H          3.13270       -0.36800       -0.81935
H          2.77942        1.03442        0.22010
H          0.77765       -2.08859        0.28203
H         -2.62498       -0.30578       -1.67949
H         -1.32860        1.74170       -2.06182
H          1.01292        1.91127       -1.29759
H         -3.46008       -3.73271        0.06487
H         -4.54381       -2.51301        1.66892
H         -2.84411       -2.39884        2.05614
H         -3.90496       -0.35278        2.55392
H         -2.77330       -0.04504        1.25918
H         -4.97609        1.15679        1.07951
H         -4.62747        0.18588       -0.35415
H         -7.32235        1.03932        0.59907
H         -6.96952        0.03758       -0.84806
H         -8.05884       -0.56774        0.41825
H         -3.97827       -2.88882       -1.92238
H         -5.05958       -2.27215       -0.86884

--Link1--
%chk=JID_6565.chk
%mem=8GB
%nprocshared=4
# B3LYP/6-311++G(d,p) empiricaldispersion=gd3bj scf=xqc pop=npa geom=check

CID_116593747_JID_6565_Energie_neutraal

0 1

--Link1--
%chk=JID_6565.chk
%mem=8GB
%nprocshared=4
# B3LYP/6-311++G(d,p) empiricaldispersion=gd3bj scf=xqc pop=npa geom=check

CID_116593747_JID_6565_Energie_kation

1 2

--Link1--
%chk=JID_6565.chk
%mem=8GB
%nprocshared=4
# B3LYP/6-311++G(d,p) empiricaldispersion=gd3bj scf=xqc pop=npa geom=check

CID_116593747_JID_6565_Energie_anion

-1 2
