%chk=JID_9083.chk
%mem=8GB
%nprocshared=4
# opt freq B3LYP/6-31G(d) empiricaldispersion=gd3bj scf=xqc

CID_81238466_JID_9083_neutraal

0 1
C          1.06311       -0.01012       -0.07691
C          0.51905        0.75383        1.13218
C          0.94313        0.10227        2.45771
C          1.76817        0.95367        3.43550
C          1.50020        2.46829        3.46522
C          0.60051        3.01969        2.33728
C          0.84345        2.24603        1.02929
C          0.94618        4.50462        2.10438
C         -0.88270        2.94558        2.75229
O          3.17696        0.62881        3.50650
C          3.89382        0.60460        2.34431
C          4.35309       -0.61557        1.84587
C          5.15789       -0.56995        0.71135
N          5.52931        0.56658        0.08032
C          5.11711        1.73411        0.61769
C          4.32028        1.79159        1.75528
C          5.58669        2.99954       -0.03506
C          4.06929       -1.93537        2.49611
O          3.47442       -2.83798        1.56832
H          0.66542        0.40860       -1.00768
H          0.77173       -1.06497       -0.03627
H          2.15363        0.04097       -0.12859
H         -0.57414        0.65514        1.06854
H          0.00779       -0.14940        2.97945
H          1.42085       -0.86623        2.28387
H          1.43459        0.60376        4.42344
H          2.44968        3.01123        3.49923
H          1.03329        2.71391        4.43022
H          1.88282        2.38067        0.71162
H          0.23726        2.68061        0.22246
H          0.30703        4.94377        1.33005
H          0.81309        5.09071        3.02076
H          1.98670        4.62417        1.78121
H         -1.18658        1.93281        3.03183
H         -1.08160        3.59060        3.61611
H         -1.53542        3.27782        1.93702
H          5.54845       -1.48280        0.26635
H          4.06382        2.75437        2.17643
H          6.28446        3.52530        0.62412
H          6.09978        2.78478       -0.97787
H          4.73662        3.65372       -0.25332
H          4.99991       -2.37971        2.86419
H          3.39038       -1.84350        3.34842
H          2.84017       -2.32969        1.03418

--Link1--
%chk=JID_9083.chk
%mem=8GB
%nprocshared=4
# B3LYP/6-311++G(d,p) empiricaldispersion=gd3bj scf=xqc pop=npa geom=check

CID_81238466_JID_9083_Energie_neutraal

0 1

--Link1--
%chk=JID_9083.chk
%mem=8GB
%nprocshared=4
# B3LYP/6-311++G(d,p) empiricaldispersion=gd3bj scf=xqc pop=npa geom=check

CID_81238466_JID_9083_Energie_kation

1 2

--Link1--
%chk=JID_9083.chk
%mem=8GB
%nprocshared=4
# B3LYP/6-311++G(d,p) empiricaldispersion=gd3bj scf=xqc pop=npa geom=check

CID_81238466_JID_9083_Energie_anion

-1 2
