%chk=JID_8663.chk
%mem=8GB
%nprocshared=4
# opt freq B3LYP/6-31G(d) empiricaldispersion=gd3bj scf=xqc

CID_79332986_JID_8663_neutraal

0 1
C          1.02643       -0.04269       -0.08648
C          0.53765       -1.04970       -1.12435
C          1.07275       -2.45679       -0.85950
O         -0.88555       -0.98420       -1.33371
C         -1.65898       -1.53706       -0.35392
C         -2.18900       -2.80817       -0.55406
C         -3.04324       -3.36827        0.39954
C         -3.39776       -2.65447        1.55548
C         -2.87459       -1.35847        1.72108
C         -2.02512       -0.79741        0.76455
C         -4.37641       -3.19316        2.59294
C         -5.79059       -2.57439        2.41173
S         -6.70399       -3.25531        0.97262
C         -7.51594       -1.76522        0.29321
C         -8.17147       -0.83468        1.31104
O         -7.17654        0.19435        1.07757
C         -6.59205       -0.58359       -0.00026
N         -4.41208       -4.66477        2.64964
H          0.75656       -0.34660        0.92972
H          0.58449        0.94311       -0.26450
H          2.11662        0.05242       -0.12251
H          0.96162       -0.73335       -2.08580
H          0.75309       -2.83447        0.11739
H          0.70916       -3.15778       -1.61794
H          2.16746       -2.46525       -0.87791
H         -1.94205       -3.36587       -1.45263
H         -3.43653       -4.36566        0.22080
H         -3.14458       -0.76426        2.59171
H         -1.66779        0.21950        0.89256
H         -3.99934       -2.86901        3.57223
H         -6.39589       -2.80338        3.29659
H         -5.70502       -1.48695        2.36304
H         -8.17381       -2.00791       -0.54836
H         -9.17014       -0.48171        1.03267
H         -8.19000       -1.14863        2.35826
H         -5.51719       -0.72423        0.13730
H         -6.76080       -0.09843       -0.96753
H         -4.98297       -4.94824        3.44445
H         -4.93819       -4.98485        1.83284

--Link1--
%chk=JID_8663.chk
%mem=8GB
%nprocshared=4
# B3LYP/6-311++G(d,p) empiricaldispersion=gd3bj scf=xqc pop=npa geom=check

CID_79332986_JID_8663_Energie_neutraal

0 1

--Link1--
%chk=JID_8663.chk
%mem=8GB
%nprocshared=4
# B3LYP/6-311++G(d,p) empiricaldispersion=gd3bj scf=xqc pop=npa geom=check

CID_79332986_JID_8663_Energie_kation

1 2

--Link1--
%chk=JID_8663.chk
%mem=8GB
%nprocshared=4
# B3LYP/6-311++G(d,p) empiricaldispersion=gd3bj scf=xqc pop=npa geom=check

CID_79332986_JID_8663_Energie_anion

-1 2
