%chk=JID_6325.chk
%mem=8GB
%nprocshared=4
# opt freq B3LYP/6-31G(d) empiricaldispersion=gd3bj scf=xqc

CID_131531987_JID_6325_neutraal

0 1
C          0.92467        0.04077       -0.05160
C          0.43530        1.38553       -0.59995
C          0.88355        1.55549       -2.05257
C         -1.06255        1.56847       -0.48477
C         -1.84672        2.72579       -0.35604
C         -3.21020        2.28266       -0.29260
C         -3.20316        0.91142       -0.41797
N         -1.91906        0.48522       -0.53963
C         -4.41895        0.05547       -0.40314
C         -5.66508        0.96688       -0.53417
N         -5.57898        2.19353        0.29009
C         -4.47809        3.07590       -0.16861
C         -1.41695        4.12931       -0.30923
O         -2.20768        5.06436       -0.23710
O         -0.06388        4.29402       -0.36194
C          0.36190        5.65507       -0.32046
H          0.57523       -0.80187       -0.65826
H          0.58000       -0.11493        0.97670
H          2.01982        0.00682       -0.04493
H          0.92700        2.15265        0.00847
H          0.43627        0.79299       -2.70038
H          0.59270        2.53495       -2.44748
H          1.97258        1.47301       -2.13503
H         -1.63597       -0.47995       -0.64865
H         -4.46109       -0.49216        0.54579
H         -4.40024       -0.67384       -1.21959
H         -6.55386        0.40021       -0.23489
H         -5.81619        1.24970       -1.58402
H         -5.35360        1.91749        1.24566
H         -4.73850        3.52382       -1.13409
H         -4.36320        3.88380        0.56051
H          0.00055        6.19548       -1.20089
H          0.02151        6.13920        0.60038
H          1.45529        5.66786       -0.33179

--Link1--
%chk=JID_6325.chk
%mem=8GB
%nprocshared=4
# B3LYP/6-311++G(d,p) empiricaldispersion=gd3bj scf=xqc pop=npa geom=check

CID_131531987_JID_6325_Energie_neutraal

0 1

--Link1--
%chk=JID_6325.chk
%mem=8GB
%nprocshared=4
# B3LYP/6-311++G(d,p) empiricaldispersion=gd3bj scf=xqc pop=npa geom=check

CID_131531987_JID_6325_Energie_kation

1 2

--Link1--
%chk=JID_6325.chk
%mem=8GB
%nprocshared=4
# B3LYP/6-311++G(d,p) empiricaldispersion=gd3bj scf=xqc pop=npa geom=check

CID_131531987_JID_6325_Energie_anion

-1 2
