%chk=JID_7147.chk
%mem=8GB
%nprocshared=4
# opt freq B3LYP/6-31G(d) empiricaldispersion=gd3bj scf=xqc

CID_108057001_JID_7147_neutraal

0 1
C          0.99655       -0.02463        0.09686
C          0.20298        0.05140       -1.20129
C          0.67907       -0.94230       -2.26662
N          0.35249       -2.30915       -1.90049
C          0.77854       -3.33604       -2.87104
C          2.30262       -3.40764       -3.18458
O          3.11688       -3.90430       -2.11872
C          3.68232       -2.91756       -1.25530
C          4.90656       -2.23319       -1.87106
O          4.49681       -1.14183       -2.70273
C          5.60877       -0.50600       -3.31870
C          0.24294       -4.69743       -2.43313
N         -0.33383       -4.90049       -1.23331
N         -0.70999       -6.18884       -1.25895
C         -0.35486       -6.84027       -2.40080
C          0.25838       -5.89872       -3.19298
C         -1.45026       -6.73250       -0.14700
H          0.87284       -0.99336        0.58969
H          0.65339        0.74864        0.79165
H          2.06350        0.13667       -0.08708
H         -0.86221       -0.10202       -0.98922
H          0.29867        1.06622       -1.60609
H          0.17911       -0.69564       -3.21064
H          1.75226       -0.80107       -2.41883
H          0.69561       -2.58633       -0.98255
H          0.26932       -3.10402       -3.81707
H          2.44245       -4.11766       -4.00928
H          2.67302       -2.45417       -3.56776
H          2.92892       -2.19456       -0.93921
H          4.01067       -3.46304       -0.36431
H          5.53523       -1.83125       -1.06880
H          5.48305       -2.94925       -2.46736
H          6.28612       -0.09958       -2.56164
H          6.14231       -1.20938       -3.96509
H          5.23628        0.31822       -3.93294
H         -0.57225       -7.88599       -2.55927
H          0.66321       -6.05070       -4.18236
H         -0.93216       -6.47452        0.77979
H         -2.45302       -6.29754       -0.16085
H         -1.51229       -7.81883       -0.24818

--Link1--
%chk=JID_7147.chk
%mem=8GB
%nprocshared=4
# B3LYP/6-311++G(d,p) empiricaldispersion=gd3bj scf=xqc pop=npa geom=check

CID_108057001_JID_7147_Energie_neutraal

0 1

--Link1--
%chk=JID_7147.chk
%mem=8GB
%nprocshared=4
# B3LYP/6-311++G(d,p) empiricaldispersion=gd3bj scf=xqc pop=npa geom=check

CID_108057001_JID_7147_Energie_kation

1 2

--Link1--
%chk=JID_7147.chk
%mem=8GB
%nprocshared=4
# B3LYP/6-311++G(d,p) empiricaldispersion=gd3bj scf=xqc pop=npa geom=check

CID_108057001_JID_7147_Energie_anion

-1 2
