%chk=JID_9698.chk
%mem=8GB
%nprocshared=4
# opt freq B3LYP/6-31G(d) empiricaldispersion=gd3bj scf=xqc

CID_120780377_JID_9698_neutraal

0 1
C          1.07136       -0.06640        0.02234
C          0.95733       -0.53067        1.46868
C          1.22788        0.59687        2.46228
O          0.23220        1.61374        2.30310
C          0.77686        2.84061        2.04472
C          1.59328        3.49588        2.96242
C          2.10766        4.75264        2.64739
C          1.79112        5.35329        1.42559
C          0.94706        4.70923        0.50715
C          0.43780        3.44773        0.83739
C          0.60281        5.35774       -0.81544
N         -0.64857        6.10777       -0.88931
C         -1.87293        5.31106       -0.88493
C         -2.99120        6.32190       -0.61466
C         -2.27965        7.61572       -0.16285
C         -0.84335        7.13889        0.12457
C         -2.91662        8.18364        1.11272
C         -2.32018        8.71497       -1.26257
N         -1.86860        8.28608       -2.58425
H          0.26252        0.62011       -0.24079
H          1.00205       -0.92618       -0.65199
H          2.02909        0.43078       -0.16041
H         -0.05101       -0.93066        1.62673
H          1.66939       -1.34438        1.64538
H          1.14485        0.21067        3.48431
H          2.25369        0.96470        2.32654
H          1.82557        3.03805        3.91889
H          2.75235        5.26795        3.35440
H          2.20146        6.33404        1.19446
H         -0.21821        2.92459        0.14728
H          1.42202        6.03457       -1.09267
H          0.61399        4.58933       -1.60040
H         -2.02342        4.79703       -1.83962
H         -1.88724        4.56320       -0.08609
H         -3.65758        5.92936        0.16272
H         -3.60333        6.47994       -1.50963
H         -0.77564        6.72817        1.13932
H         -0.11188        7.94849        0.02911
H         -2.37036        9.06499        1.46621
H         -3.95738        8.47660        0.93629
H         -2.91468        7.44538        1.92281
H         -3.34177        9.09796       -1.36833
H         -1.69733        9.55885       -0.94070
H         -1.45996        9.07152       -3.08515
H         -1.12426        7.59057       -2.46248

--Link1--
%chk=JID_9698.chk
%mem=8GB
%nprocshared=4
# B3LYP/6-311++G(d,p) empiricaldispersion=gd3bj scf=xqc pop=npa geom=check

CID_120780377_JID_9698_Energie_neutraal

0 1

--Link1--
%chk=JID_9698.chk
%mem=8GB
%nprocshared=4
# B3LYP/6-311++G(d,p) empiricaldispersion=gd3bj scf=xqc pop=npa geom=check

CID_120780377_JID_9698_Energie_kation

1 2

--Link1--
%chk=JID_9698.chk
%mem=8GB
%nprocshared=4
# B3LYP/6-311++G(d,p) empiricaldispersion=gd3bj scf=xqc pop=npa geom=check

CID_120780377_JID_9698_Energie_anion

-1 2
