%chk=JID_5835.chk
%mem=8GB
%nprocshared=4
# opt freq B3LYP/6-31G(d) empiricaldispersion=gd3bj scf=xqc

CID_63199419_JID_5835_neutraal

0 1
C          1.06500       -0.06647       -0.03684
C          0.26716       -0.17282       -1.32806
N          1.18404       -0.26784       -2.46193
C          0.48593       -0.40509       -3.75832
C          0.02963        0.98088       -4.24355
C          1.44012       -1.08446       -4.78923
C          1.90844       -2.46975       -4.31503
C          0.79003       -1.22486       -6.15735
N         -0.28622       -2.03333       -6.26376
C         -0.85818       -2.13768       -7.47739
N         -0.43649       -1.49624       -8.58201
C          0.63432       -0.68937       -8.44637
C          1.28874       -0.52493       -7.24128
C          1.09987        0.04809       -9.66526
C         -2.01457       -3.07640       -7.62026
H          1.70676       -0.94266        0.10531
H          0.38724       -0.00296        0.82058
H          1.69789        0.82748       -0.03273
H         -0.36781       -1.06442       -1.27788
H         -0.38230        0.70415       -1.41345
H          1.80300        0.54187       -2.47899
H         -0.39932       -1.04323       -3.63462
H          0.88600        1.63506       -4.44268
H         -0.55982        0.90664       -5.16297
H         -0.60860        1.47829       -3.50646
H          2.33894       -0.46009       -4.89314
H          1.06048       -3.13311       -4.10963
H          2.53236       -2.95384       -5.07526
H          2.50647       -2.39746       -3.40088
H          2.14776        0.12826       -7.15240
H          2.13979       -0.20837       -9.88995
H          0.48898       -0.21164      -10.53579
H          1.02221        1.12805       -9.50473
H         -1.64904       -4.07125       -7.89098
H         -2.57147       -3.14863       -6.68116
H         -2.69946       -2.72805       -8.39930

--Link1--
%chk=JID_5835.chk
%mem=8GB
%nprocshared=4
# B3LYP/6-311++G(d,p) empiricaldispersion=gd3bj scf=xqc pop=npa geom=check

CID_63199419_JID_5835_Energie_neutraal

0 1

--Link1--
%chk=JID_5835.chk
%mem=8GB
%nprocshared=4
# B3LYP/6-311++G(d,p) empiricaldispersion=gd3bj scf=xqc pop=npa geom=check

CID_63199419_JID_5835_Energie_kation

1 2

--Link1--
%chk=JID_5835.chk
%mem=8GB
%nprocshared=4
# B3LYP/6-311++G(d,p) empiricaldispersion=gd3bj scf=xqc pop=npa geom=check

CID_63199419_JID_5835_Energie_anion

-1 2
