%chk=JID_3120.chk
%mem=8GB
%nprocshared=4
# opt freq B3LYP/6-31G(d) empiricaldispersion=gd3bj scf=xqc

CID_127016354_JID_3120_neutraal

0 1
C          1.04680        0.03517        0.08107
C          0.37272       -1.14899       -0.52622
C          1.20982       -2.32951       -0.91507
C          0.17539       -2.47793        0.18766
C          0.63710       -2.68049        1.62430
C          1.67153       -3.57954        1.91591
N          2.16611       -3.85961        3.14665
C          1.60814       -3.21451        4.18919
C          0.56407       -2.31137        4.02865
C          0.05821       -2.04753        2.74373
C         -1.06658       -1.05537        2.63018
C          2.15208       -3.50680        5.55475
N         -1.02062       -3.26226       -0.17044
H          0.31843        0.65780        0.60835
H          1.49888        0.64767       -0.70593
H          1.83916       -0.24144        0.78344
H         -0.40068       -0.83791       -1.22133
H          1.00844       -2.79136       -1.87589
H          2.26361       -2.31209       -0.66122
H          2.15467       -4.13337        1.11373
H          0.14095       -1.81492        4.89772
H         -1.82590       -1.25699        3.39386
H         -0.68327       -0.04064        2.77600
H         -1.57431       -1.09649        1.66414
H          2.53688       -2.59033        6.01278
H          1.36760       -3.92605        6.19236
H          2.97147       -4.23090        5.50146
H         -0.83687       -4.25568       -0.03205
H         -1.78793       -3.03831        0.46119

--Link1--
%chk=JID_3120.chk
%mem=8GB
%nprocshared=4
# B3LYP/6-311++G(d,p) empiricaldispersion=gd3bj scf=xqc pop=npa geom=check

CID_127016354_JID_3120_Energie_neutraal

0 1

--Link1--
%chk=JID_3120.chk
%mem=8GB
%nprocshared=4
# B3LYP/6-311++G(d,p) empiricaldispersion=gd3bj scf=xqc pop=npa geom=check

CID_127016354_JID_3120_Energie_kation

1 2

--Link1--
%chk=JID_3120.chk
%mem=8GB
%nprocshared=4
# B3LYP/6-311++G(d,p) empiricaldispersion=gd3bj scf=xqc pop=npa geom=check

CID_127016354_JID_3120_Energie_anion

-1 2
