%chk=JID_6855.chk
%mem=8GB
%nprocshared=4
# opt freq B3LYP/6-31G(d) empiricaldispersion=gd3bj scf=xqc

CID_150015864_JID_6855_neutraal

0 1
C         -1.43100        0.32400       -0.23100
C         -1.13873       -1.16034       -0.02448
C          0.24808       -1.53779       -0.54273
C          1.33257       -0.65491        0.08516
C          1.04155        0.83565       -0.12541
C         -0.34894        1.20608        0.38718
C          2.74033       -1.03159       -0.35705
O          3.60421       -1.36914        0.44476
S          3.09605       -0.91911       -2.08044
C          4.89281       -1.23046       -2.08988
C          5.71270        0.03302       -1.87242
C          6.00404        0.27616       -0.40838
O          6.91242       -0.32552        0.15872
N          5.19780        1.22799        0.16009
N          5.26497        1.20731        1.40050
N          5.29396        1.23224        2.54034
H         -2.40363        0.57222        0.20853
H         -1.50256        0.53474       -1.30519
H         -1.20763       -1.40095        1.04356
H         -1.89928       -1.76054       -0.53647
H          0.25176       -1.44176       -1.63507
H          0.44928       -2.59304       -0.32224
H          1.31083       -0.84096        1.16945
H          1.10650        1.09583       -1.18890
H          1.79691        1.44210        0.38895
H         -0.55681        2.25792        0.16070
H         -0.37440        1.10355        1.47904
H          5.15686       -2.02880       -1.38884
H          5.11516       -1.61101       -3.09310
H          6.68928       -0.08570       -2.35968
H          5.25588        0.91979       -2.32676

--Link1--
%chk=JID_6855.chk
%mem=8GB
%nprocshared=4
# B3LYP/6-311++G(d,p) empiricaldispersion=gd3bj scf=xqc pop=npa geom=check

CID_150015864_JID_6855_Energie_neutraal

0 1

--Link1--
%chk=JID_6855.chk
%mem=8GB
%nprocshared=4
# B3LYP/6-311++G(d,p) empiricaldispersion=gd3bj scf=xqc pop=npa geom=check

CID_150015864_JID_6855_Energie_kation

1 2

--Link1--
%chk=JID_6855.chk
%mem=8GB
%nprocshared=4
# B3LYP/6-311++G(d,p) empiricaldispersion=gd3bj scf=xqc pop=npa geom=check

CID_150015864_JID_6855_Energie_anion

-1 2
