%chk=JID_7827.chk
%mem=8GB
%nprocshared=4
# opt freq B3LYP/6-31G(d) empiricaldispersion=gd3bj scf=xqc

CID_105110034_JID_7827_neutraal

0 1
C         -3.46200       -0.74800        0.02700
C         -2.05380       -0.26970       -0.16365
N         -1.11565       -1.20012       -0.42711
C          0.15622       -0.80865       -0.59785
C          1.09638       -1.79711       -0.85570
C          2.44732       -1.50497       -1.04166
C          2.87541       -0.19016       -0.96670
C          1.94885        0.82107       -0.71132
C          0.57086        0.54302       -0.52504
C         -0.43211        1.51784       -0.26089
C         -1.75389        1.08001       -0.06937
C         -0.18766        3.01647       -0.16119
C          0.17469        3.55258        1.24328
C          1.47002        3.07510        1.87041
C          2.63557        3.69995        1.63286
C          1.37864        1.92181        2.83010
O          0.70530        3.51343       -1.15874
H         -3.52616       -1.83330       -0.10179
H         -3.81070       -0.50281        1.03498
H         -4.12394       -0.27851       -0.70732
H          0.76459       -2.83173       -0.91022
H          3.15549       -2.30506       -1.23827
H          3.92586        0.05490       -1.10021
H          2.32784        1.83751       -0.64427
H         -2.54933        1.78870        0.14610
H         -1.13800        3.50316       -0.42063
H          0.22091        4.64904        1.17796
H         -0.64851        3.33414        1.93650
H          3.56177        3.37994        2.09981
H          2.69201        4.54442        0.95115
H          0.74463        2.18989        3.68155
H          0.95068        1.03930        2.34848
H          2.36068        1.63844        3.22374
H          0.59667        2.94906       -1.94380

--Link1--
%chk=JID_7827.chk
%mem=8GB
%nprocshared=4
# B3LYP/6-311++G(d,p) empiricaldispersion=gd3bj scf=xqc pop=npa geom=check

CID_105110034_JID_7827_Energie_neutraal

0 1

--Link1--
%chk=JID_7827.chk
%mem=8GB
%nprocshared=4
# B3LYP/6-311++G(d,p) empiricaldispersion=gd3bj scf=xqc pop=npa geom=check

CID_105110034_JID_7827_Energie_kation

1 2

--Link1--
%chk=JID_7827.chk
%mem=8GB
%nprocshared=4
# B3LYP/6-311++G(d,p) empiricaldispersion=gd3bj scf=xqc pop=npa geom=check

CID_105110034_JID_7827_Energie_anion

-1 2
