%chk=JID_6845.chk
%mem=8GB
%nprocshared=4
# opt freq B3LYP/6-31G(d) empiricaldispersion=gd3bj scf=xqc

CID_60848097_JID_6845_neutraal

0 1
C          2.49200        0.00400       -0.01400
C          0.99299       -0.03035       -0.08317
C          0.32562       -1.25245       -0.26782
C         -1.06818       -1.31024       -0.31217
C         -1.79478       -0.11859       -0.20525
C         -1.14290        1.09835        0.00338
C          0.24721        1.14083        0.07602
N         -1.80579       -2.48472       -0.53634
C         -1.49025       -3.80650       -0.41746
O         -2.21893       -4.63151       -0.98090
C         -0.28790       -4.27689        0.39458
N          0.74747       -4.80621       -0.47457
C          2.02502       -5.12981       -0.12084
O          2.80161       -5.56297       -0.97312
C          2.47001       -4.90402        1.32619
N          2.84056       -3.49678        1.52736
H          2.82225       -0.15877        1.01648
H          2.93146       -0.76823       -0.65414
H          2.87697        0.96901       -0.36010
H          0.93489       -2.13450       -0.43036
H         -2.88085       -0.12344       -0.25739
H         -1.72019        2.01330        0.10911
H          0.74564        2.09340        0.24108
H         -2.73697       -2.35768       -0.91712
H          0.09605       -3.50940        1.06646
H         -0.62776       -5.09985        1.03448
H          0.50001       -5.03960       -1.43044
H          1.67444       -5.19449        2.01815
H          3.33114       -5.55064        1.52608
H          3.24814       -3.39654        2.45631
H          3.59209       -3.27413        0.87107

--Link1--
%chk=JID_6845.chk
%mem=8GB
%nprocshared=4
# B3LYP/6-311++G(d,p) empiricaldispersion=gd3bj scf=xqc pop=npa geom=check

CID_60848097_JID_6845_Energie_neutraal

0 1

--Link1--
%chk=JID_6845.chk
%mem=8GB
%nprocshared=4
# B3LYP/6-311++G(d,p) empiricaldispersion=gd3bj scf=xqc pop=npa geom=check

CID_60848097_JID_6845_Energie_kation

1 2

--Link1--
%chk=JID_6845.chk
%mem=8GB
%nprocshared=4
# B3LYP/6-311++G(d,p) empiricaldispersion=gd3bj scf=xqc pop=npa geom=check

CID_60848097_JID_6845_Energie_anion

-1 2
