%chk=JID_1947.chk
%mem=8GB
%nprocshared=4
# opt freq B3LYP/6-31G(d) empiricaldispersion=gd3bj scf=xqc

CID_153439808_JID_1947_neutraal

0 1
C          0.92849       -0.03955       -0.05764
N          0.30879        1.23621       -0.40670
C          0.22130        1.39922       -1.86230
C         -0.55604        2.67578       -2.21536
C         -0.14007        3.85843       -1.38904
C          0.62356        3.72516       -0.28349
C          1.06475        2.35716        0.19299
C          1.07862        4.92538        0.51373
N          0.53548        4.93342        1.85907
O          2.49559        5.05640        0.45376
C          3.23209        4.57631        1.56762
H          0.33631       -0.87366       -0.45009
H          0.96487       -0.16515        1.03021
H          1.94818       -0.12787       -0.44970
H          1.22335        1.43614       -2.31122
H         -0.30186        0.54635       -2.31206
H         -0.40324        2.90337       -3.27643
H         -1.63055        2.51253       -2.06821
H         -0.47065        4.83599       -1.72705
H          0.93409        2.29363        1.27945
H          2.13560        2.24999       -0.02449
H          0.69677        5.82590        0.01676
H          0.72041        5.85222        2.25405
H         -0.47774        4.86138        1.78280
H          3.09108        5.23085        2.43308
H          2.96949        3.54688        1.82272
H          4.29351        4.59997        1.30420

--Link1--
%chk=JID_1947.chk
%mem=8GB
%nprocshared=4
# B3LYP/6-311++G(d,p) empiricaldispersion=gd3bj scf=xqc pop=npa geom=check

CID_153439808_JID_1947_Energie_neutraal

0 1

--Link1--
%chk=JID_1947.chk
%mem=8GB
%nprocshared=4
# B3LYP/6-311++G(d,p) empiricaldispersion=gd3bj scf=xqc pop=npa geom=check

CID_153439808_JID_1947_Energie_kation

1 2

--Link1--
%chk=JID_1947.chk
%mem=8GB
%nprocshared=4
# B3LYP/6-311++G(d,p) empiricaldispersion=gd3bj scf=xqc pop=npa geom=check

CID_153439808_JID_1947_Energie_anion

-1 2
