%chk=JID_6534.chk
%mem=8GB
%nprocshared=4
# opt freq B3LYP/6-31G(d) empiricaldispersion=gd3bj scf=xqc

CID_12595033_JID_6534_neutraal

0 1
C          0.95805        0.03439        0.08401
C          0.66352       -0.29053       -1.35847
O         -0.10365       -1.21017       -1.65145
N          1.18169        0.47285       -2.37057
C          2.05640        1.56885       -2.28824
C          1.68402        2.72278       -2.97978
C          2.45763        3.88758       -2.88827
C          2.08183        5.07906       -3.53411
C          2.86227        6.22594       -3.40529
C          4.01786        6.18664       -2.63392
C          4.38899        4.99903       -1.99674
C          3.62862        3.84290       -2.10891
N          4.03275        2.72029       -1.49084
C          3.27523        1.58827       -1.60656
C          3.96094        0.34946       -1.08485
O          4.41962        0.57209        0.24799
H          1.70972       -0.65366        0.47588
H          0.03580       -0.09526        0.66006
H          1.27607        1.06806        0.22707
H          0.62821        0.37133       -3.21503
H          0.75960        2.73908       -3.55275
H          1.17682        5.12115       -4.13614
H          2.56835        7.14657       -3.90319
H          4.63461        7.07530       -2.52558
H          5.29715        4.97559       -1.39897
H          3.34053       -0.54661       -1.09849
H          4.83587        0.14304       -1.71122
H          4.65713        1.52090        0.27514

--Link1--
%chk=JID_6534.chk
%mem=8GB
%nprocshared=4
# B3LYP/6-311++G(d,p) empiricaldispersion=gd3bj scf=xqc pop=npa geom=check

CID_12595033_JID_6534_Energie_neutraal

0 1

--Link1--
%chk=JID_6534.chk
%mem=8GB
%nprocshared=4
# B3LYP/6-311++G(d,p) empiricaldispersion=gd3bj scf=xqc pop=npa geom=check

CID_12595033_JID_6534_Energie_kation

1 2

--Link1--
%chk=JID_6534.chk
%mem=8GB
%nprocshared=4
# B3LYP/6-311++G(d,p) empiricaldispersion=gd3bj scf=xqc pop=npa geom=check

CID_12595033_JID_6534_Energie_anion

-1 2
