%chk=JID_7528.chk
%mem=8GB
%nprocshared=4
# opt freq B3LYP/6-31G(d) empiricaldispersion=gd3bj scf=xqc

CID_64633524_JID_7528_neutraal

0 1
C          0.93416        0.00944        0.07467
C          0.35744        0.33446       -1.29313
C          1.24838        1.32863       -2.03636
N          0.51948        2.06716       -3.05087
C          0.52828        1.78101       -4.38868
O          1.13233        0.89039       -4.96190
N         -0.30540        2.72251       -4.98024
N         -0.82931        3.56489       -4.03630
C         -0.30554        3.13490       -2.92705
S         -0.64014        3.78761       -1.36676
C         -0.10353        5.52869       -1.59350
C         -0.75355        6.37124       -0.47803
C         -0.15643        6.11466        0.90930
C          1.36061        6.27228        0.91726
C          2.03935        5.44924       -0.17537
C          1.43663        5.74471       -1.55871
N          2.16794        5.00346       -2.59191
H          1.94282       -0.40674       -0.01345
H          0.30610       -0.72763        0.58483
H          0.98369        0.90411        0.70379
H          0.25645       -0.58203       -1.88635
H         -0.65577        0.72890       -1.15932
H          1.67909        2.05188       -1.33603
H          2.08083        0.79496       -2.50918
H         -0.51845        2.79800       -5.96529
H         -0.49784        5.87862       -2.55485
H         -1.83887        6.21196       -0.44876
H         -0.61281        7.43308       -0.72040
H         -0.41995        5.10888        1.25688
H         -0.59762        6.81349        1.62941
H          1.75598        5.97913        1.89663
H          1.61302        7.33069        0.77847
H          1.95421        4.38226        0.06630
H          3.11193        5.68128       -0.17546
H          1.60817        6.80854       -1.77227
H          3.13194        5.33630       -2.63028
H          2.23219        4.02094       -2.33588

--Link1--
%chk=JID_7528.chk
%mem=8GB
%nprocshared=4
# B3LYP/6-311++G(d,p) empiricaldispersion=gd3bj scf=xqc pop=npa geom=check

CID_64633524_JID_7528_Energie_neutraal

0 1

--Link1--
%chk=JID_7528.chk
%mem=8GB
%nprocshared=4
# B3LYP/6-311++G(d,p) empiricaldispersion=gd3bj scf=xqc pop=npa geom=check

CID_64633524_JID_7528_Energie_kation

1 2

--Link1--
%chk=JID_7528.chk
%mem=8GB
%nprocshared=4
# B3LYP/6-311++G(d,p) empiricaldispersion=gd3bj scf=xqc pop=npa geom=check

CID_64633524_JID_7528_Energie_anion

-1 2
