%chk=JID_9605.chk
%mem=8GB
%nprocshared=4
# opt freq B3LYP/6-31G(d) empiricaldispersion=gd3bj scf=xqc

CID_105833657_JID_9605_neutraal

0 1
C          1.00331       -0.06558       -0.07542
C         -0.09637       -1.07408        0.21456
N          0.36121       -2.19516        1.00331
C          0.47331       -3.51276        0.69779
C          0.93992       -4.12189        1.81930
C          1.09868       -3.14647        2.79297
N          0.72845       -1.94783        2.30078
C          1.57370       -3.28421        4.18582
N          1.07624       -5.45361        1.57184
C          0.67539       -5.68504        0.23382
S          0.70150       -7.19813       -0.44905
N          0.27776       -4.41382       -0.33860
C         -0.18164       -4.23609       -1.70352
C         -1.60387       -3.67324       -1.84760
C         -1.56278       -2.74104       -3.06220
C         -0.21116       -3.00385       -3.72807
C          0.71484       -3.35137       -2.56662
O          0.21341       -1.97177       -4.60250
C          0.70855       -0.78260       -4.01075
H          1.39208        0.37715        0.84754
H          0.61858        0.74426       -0.70296
H          1.84216       -0.53624       -0.59868
H         -0.91414       -0.60044        0.76917
H         -0.50863       -1.44527       -0.71950
H          0.73679       -3.51939        4.85074
H          2.31285       -4.08774        4.26738
H          2.04415       -2.36049        4.53821
H          1.40280       -6.15529        2.21785
H         -0.19782       -5.21927       -2.18781
H         -2.31404       -4.49186       -2.01458
H         -1.95320       -3.13979       -0.95843
H         -1.66936       -1.69858       -2.74715
H         -2.38990       -2.93714       -3.75304
H         -0.32026       -3.89734       -4.35733
H          1.05761       -2.46704       -2.02602
H          1.61387       -3.87663       -2.90652
H          0.01945       -0.38055       -3.26451
H          1.69207       -0.95763       -3.56590
H          0.82985       -0.03653       -4.80125

--Link1--
%chk=JID_9605.chk
%mem=8GB
%nprocshared=4
# B3LYP/6-311++G(d,p) empiricaldispersion=gd3bj scf=xqc pop=npa geom=check

CID_105833657_JID_9605_Energie_neutraal

0 1

--Link1--
%chk=JID_9605.chk
%mem=8GB
%nprocshared=4
# B3LYP/6-311++G(d,p) empiricaldispersion=gd3bj scf=xqc pop=npa geom=check

CID_105833657_JID_9605_Energie_kation

1 2

--Link1--
%chk=JID_9605.chk
%mem=8GB
%nprocshared=4
# B3LYP/6-311++G(d,p) empiricaldispersion=gd3bj scf=xqc pop=npa geom=check

CID_105833657_JID_9605_Energie_anion

-1 2
