%chk=JID_7238.chk
%mem=8GB
%nprocshared=4
# opt freq B3LYP/6-31G(d) empiricaldispersion=gd3bj scf=xqc

CID_123912772_JID_7238_neutraal

0 1
C          0.93354       -0.01818       -0.07247
C          0.28804       -0.92579       -0.82591
C         -1.21258       -1.07389       -0.81185
C         -1.91348       -0.18784       -1.84446
C         -1.75639       -0.68984       -3.25313
O         -1.29982       -1.76487       -3.60587
O         -2.21453        0.19613       -4.15713
C          1.13261       -1.81174       -1.68040
O          2.18374       -1.44532       -2.18614
O          0.54691       -3.02921       -1.78502
N          1.34138       -3.92223       -2.50039
C          2.32935       -4.70309       -1.94544
C          2.82688       -5.50478       -2.95218
C          2.07833       -5.22985       -4.12728
C          1.14154       -4.26570       -3.81844
O          0.20013       -3.72383       -4.58815
O          2.65602       -4.59648       -0.66017
H          0.39875        0.66170        0.58273
H          2.01773        0.07115       -0.09271
H         -1.51242       -2.12043       -0.93634
H         -1.58168       -0.78753        0.18244
H         -2.98716       -0.16778       -1.62511
H         -1.52937        0.83725       -1.78968
H         -2.06220       -0.22236       -5.03109
H          3.62776       -6.22555       -2.85797
H          2.19285       -5.69523       -5.09725
H         -0.30567       -3.05810       -4.06841
H          3.40430       -5.19907       -0.50256

--Link1--
%chk=JID_7238.chk
%mem=8GB
%nprocshared=4
# B3LYP/6-311++G(d,p) empiricaldispersion=gd3bj scf=xqc pop=npa geom=check

CID_123912772_JID_7238_Energie_neutraal

0 1

--Link1--
%chk=JID_7238.chk
%mem=8GB
%nprocshared=4
# B3LYP/6-311++G(d,p) empiricaldispersion=gd3bj scf=xqc pop=npa geom=check

CID_123912772_JID_7238_Energie_kation

1 2

--Link1--
%chk=JID_7238.chk
%mem=8GB
%nprocshared=4
# B3LYP/6-311++G(d,p) empiricaldispersion=gd3bj scf=xqc pop=npa geom=check

CID_123912772_JID_7238_Energie_anion

-1 2
