%chk=JID_7336.chk
%mem=8GB
%nprocshared=4
# opt freq B3LYP/6-31G(d) empiricaldispersion=gd3bj scf=xqc

CID_55140600_JID_7336_neutraal

0 1
C          0.95626        0.06381       -0.06337
N          0.75863        1.49880        0.18353
C         -0.18481        2.17355       -0.63022
C         -0.17904        3.58120       -0.66968
C         -1.08411        4.30326       -1.45655
C         -2.02277        3.62729       -2.23733
C         -2.04412        2.22935       -2.22037
C         -1.13352        1.51553       -1.42856
C         -2.99006        4.36811       -3.08535
S         -3.83223        5.73248       -2.61858
N         -3.18622        3.87112       -4.34867
C          1.08890        1.87619        1.51519
C          2.38432        1.69868        2.01156
C          2.66679        2.08377        3.31323
N          1.75989        2.62658        4.15034
C          0.51692        2.80054        3.65677
C          0.14105        2.45023        2.36943
H          1.05070       -0.14136       -1.13655
H          0.11978       -0.51991        0.33920
H          1.87689       -0.32196        0.38846
H          0.55665        4.13443       -0.08808
H         -1.03093        5.38912       -1.45742
H         -2.78389        1.68080       -2.79803
H         -1.20942        0.43220       -1.43274
H         -2.63140        3.11972       -4.73860
H         -3.79877        4.37711       -4.97848
H          3.17499        1.29472        1.38995
H          3.66474        1.96629        3.72557
H         -0.19802        3.24238        4.34486
H         -0.88280        2.61013        2.04991

--Link1--
%chk=JID_7336.chk
%mem=8GB
%nprocshared=4
# B3LYP/6-311++G(d,p) empiricaldispersion=gd3bj scf=xqc pop=npa geom=check

CID_55140600_JID_7336_Energie_neutraal

0 1

--Link1--
%chk=JID_7336.chk
%mem=8GB
%nprocshared=4
# B3LYP/6-311++G(d,p) empiricaldispersion=gd3bj scf=xqc pop=npa geom=check

CID_55140600_JID_7336_Energie_kation

1 2

--Link1--
%chk=JID_7336.chk
%mem=8GB
%nprocshared=4
# B3LYP/6-311++G(d,p) empiricaldispersion=gd3bj scf=xqc pop=npa geom=check

CID_55140600_JID_7336_Energie_anion

-1 2
