%chk=JID_10866.chk
%mem=8GB
%nprocshared=4
# opt freq B3LYP/6-31G(d) empiricaldispersion=gd3bj scf=xqc

CID_119898003_JID_10866_neutraal

0 1
C          0.92850       -0.06822        0.01527
C         -0.27313       -1.00075        0.02181
C          0.01772       -2.42108        0.53942
C          0.02944       -2.66126        2.06171
C         -1.36141       -2.41034        2.67352
C          0.47294       -4.11352        2.52379
O          1.34234       -4.25538        3.39505
N         -0.27495       -5.21549        2.20598
C         -0.72930       -5.65293        0.95373
C         -0.01486       -5.46050       -0.22362
C         -0.52452       -5.95632       -1.43208
C         -1.72286       -6.66522       -1.40710
N         -2.40537       -6.91397       -0.26002
C         -1.88286       -6.42609        0.88775
O         -2.27711       -7.07457       -2.59983
C         -3.48106       -7.81811       -2.45328
C          0.23298       -5.75957       -2.68611
O          0.36731       -6.64031       -3.52210
N          0.81061       -4.52987       -2.86224
N          0.99579       -1.71518        2.67380
H          1.20645        0.25177        1.02181
H          0.69221        0.83668       -0.55474
H          1.79653       -0.54169       -0.45398
H         -1.10285       -0.53877        0.56506
H         -0.60823       -1.09686       -1.01952
H         -0.77467       -3.04007        0.10747
H          0.96526       -2.76200        0.10510
H         -2.12192       -3.03690        2.19347
H         -1.37421       -2.65067        3.74360
H         -1.68078       -1.36822        2.56869
H         -0.12161       -5.97151        2.86870
H          0.96050       -4.98330       -0.20747
H         -2.45958       -6.65652        1.78003
H         -3.81780       -8.10821       -3.45318
H         -3.31488       -8.73521       -1.87773
H         -4.27126       -7.20771       -2.00213
H          0.60189       -3.72561       -2.28855
H          1.27158       -4.37201       -3.75022
H          0.50681       -0.93370        3.10637
H          1.46653       -2.20313        3.44661

--Link1--
%chk=JID_10866.chk
%mem=8GB
%nprocshared=4
# B3LYP/6-311++G(d,p) empiricaldispersion=gd3bj scf=xqc pop=npa geom=check

CID_119898003_JID_10866_Energie_neutraal

0 1

--Link1--
%chk=JID_10866.chk
%mem=8GB
%nprocshared=4
# B3LYP/6-311++G(d,p) empiricaldispersion=gd3bj scf=xqc pop=npa geom=check

CID_119898003_JID_10866_Energie_kation

1 2

--Link1--
%chk=JID_10866.chk
%mem=8GB
%nprocshared=4
# B3LYP/6-311++G(d,p) empiricaldispersion=gd3bj scf=xqc pop=npa geom=check

CID_119898003_JID_10866_Energie_anion

-1 2
