%chk=JID_7635.chk
%mem=8GB
%nprocshared=4
# opt freq B3LYP/6-31G(d) empiricaldispersion=gd3bj scf=xqc

CID_65717624_JID_7635_neutraal

0 1
C          1.00557       -0.03055        0.09506
N          0.41600        1.29771        0.04837
C         -1.04814        1.29042        0.15456
C         -1.63702        0.84580        1.50140
C         -1.35026        1.81742        2.59820
N         -2.02349        2.92746        2.80441
N         -1.54891        3.62653        3.89379
C         -0.52618        3.03517        4.48531
S         -0.08883        1.54713        3.72891
C          0.16384        3.55524        5.67945
C         -0.42785        4.60677        6.40204
C          0.17370        5.14647        7.54493
C          1.39409        4.63520        7.97923
C          2.00381        3.59626        7.27499
C          1.39556        3.06132        6.13561
O         -0.53034        6.15838        8.13704
C          0.03666        6.74439        9.30179
H          0.58806       -0.67885       -0.68196
H          0.87050       -0.50706        1.07015
H          2.08207        0.04587       -0.08761
H          0.82032        1.89027        0.77352
H         -1.39684        2.30592       -0.07152
H         -1.45732        0.65316       -0.63941
H         -2.72699        0.77521        1.39153
H         -1.29926       -0.16288        1.76435
H         -1.38218        5.01944        6.07454
H          1.89798        5.02282        8.85826
H          2.95928        3.20201        7.61345
H          1.91254        2.25956        5.61457
H          0.13239        6.00864       10.10714
H          1.00014        7.21423        9.07821
H         -0.64405        7.52861        9.64683

--Link1--
%chk=JID_7635.chk
%mem=8GB
%nprocshared=4
# B3LYP/6-311++G(d,p) empiricaldispersion=gd3bj scf=xqc pop=npa geom=check

CID_65717624_JID_7635_Energie_neutraal

0 1

--Link1--
%chk=JID_7635.chk
%mem=8GB
%nprocshared=4
# B3LYP/6-311++G(d,p) empiricaldispersion=gd3bj scf=xqc pop=npa geom=check

CID_65717624_JID_7635_Energie_kation

1 2

--Link1--
%chk=JID_7635.chk
%mem=8GB
%nprocshared=4
# B3LYP/6-311++G(d,p) empiricaldispersion=gd3bj scf=xqc pop=npa geom=check

CID_65717624_JID_7635_Energie_anion

-1 2
