%chk=JID_9149.chk
%mem=8GB
%nprocshared=4
# opt freq B3LYP/6-31G(d) empiricaldispersion=gd3bj scf=xqc

CID_79287309_JID_9149_neutraal

0 1
C          1.05254        0.05936       -0.06096
N          1.20718        0.80144        1.18011
C          0.71202        2.16851        1.05430
C          0.70234        0.16193        2.41323
C          0.26218       -1.30759        2.31221
O          1.08564       -2.22436        2.34478
N         -1.11124       -1.55372        2.29438
C         -1.57520       -2.93450        2.45010
C         -2.96475       -2.99272        3.10194
N         -3.93814       -2.10358        2.45567
C         -3.46397       -0.73751        2.20791
C         -2.05944       -0.68464        1.59954
C         -5.29167       -2.37858        2.67496
O         -5.66618       -3.37352        3.30086
C         -6.32653       -1.41886        2.06547
N         -6.40238       -0.17978        2.85849
C         -7.23875        0.83039        2.21495
C         -8.66668        0.49949        2.28432
C         -9.83736        0.24082        2.34009
H          1.52551        0.59803       -0.89046
H          0.00333       -0.10187       -0.32547
H          1.55902       -0.90987       -0.00831
H         -0.36871        2.19730        0.87578
H          0.92654        2.74398        1.96196
H          1.20881        2.68974        0.22893
H          1.51776        0.18263        3.14824
H         -0.10272        0.73893        2.88450
H         -1.60333       -3.38430        1.45031
H         -0.86462       -3.50865        3.05469
H         -2.89840       -2.67921        4.15165
H         -3.33253       -4.02470        3.08936
H         -3.46749       -0.22130        3.17573
H         -4.14285       -0.20405        1.53927
H         -1.71637        0.34960        1.56762
H         -2.09872       -1.03847        0.56150
H         -6.04612       -1.22618        1.02370
H         -7.29332       -1.93575        2.05459
H         -6.79515       -0.40529        3.77425
H         -7.06989        1.78396        2.72786
H         -6.92487        0.98602        1.17601
H        -10.87814        0.01455        2.39113

--Link1--
%chk=JID_9149.chk
%mem=8GB
%nprocshared=4
# B3LYP/6-311++G(d,p) empiricaldispersion=gd3bj scf=xqc pop=npa geom=check

CID_79287309_JID_9149_Energie_neutraal

0 1

--Link1--
%chk=JID_9149.chk
%mem=8GB
%nprocshared=4
# B3LYP/6-311++G(d,p) empiricaldispersion=gd3bj scf=xqc pop=npa geom=check

CID_79287309_JID_9149_Energie_kation

1 2

--Link1--
%chk=JID_9149.chk
%mem=8GB
%nprocshared=4
# B3LYP/6-311++G(d,p) empiricaldispersion=gd3bj scf=xqc pop=npa geom=check

CID_79287309_JID_9149_Energie_anion

-1 2
