%chk=JID_10825.chk
%mem=8GB
%nprocshared=4
# opt freq B3LYP/6-31G(d) empiricaldispersion=gd3bj scf=xqc

CID_69253002_JID_10825_neutraal

0 1
C          0.95028       -0.07687       -0.04023
C          0.98283       -0.73870       -1.41452
C          0.47068       -2.17284       -1.37661
C          1.26307       -3.08351       -0.40713
C          1.88523       -2.31586        0.78281
C          1.04551       -1.06949        1.11755
C          3.37862       -1.95025        0.70415
C          4.36119       -2.99957        0.13713
C          4.41444       -2.86969       -1.40753
C          5.64133       -3.50581       -2.08112
C          5.15121       -4.77114       -2.76146
C          3.72919       -4.44445       -3.16677
C          3.18754       -3.47144       -2.10575
C          2.18223       -4.11317       -1.12934
C          2.86708       -5.06095       -0.11751
C          4.08065       -4.44214        0.61884
C          3.97954       -4.58039        2.14633
C          4.46833       -5.98513        2.39853
C          5.58337       -6.10184        1.39253
O          5.23796       -5.25562        0.29125
H          0.02251        0.49804        0.07030
H          1.76428        0.65539        0.02219
H          0.38510       -0.14702       -2.11766
H          2.00819       -0.71918       -1.79868
H         -0.57795       -2.14697       -1.04839
H          0.44460       -2.59599       -2.38711
H          0.47956       -3.71130        0.04973
H          1.77379       -2.96988        1.65498
H          0.03092       -1.39477        1.38484
H          1.44080       -0.56218        2.00599
H          3.51302       -1.00918        0.15813
H          3.70299       -1.71437        1.72804
H          5.36007       -2.71137        0.49671
H          4.46359       -1.79795       -1.64600
H          6.01789       -2.81795       -2.84968
H          6.47233       -3.69376       -1.39516
H          5.16598       -5.62753       -2.08387
H          5.77106       -5.03433       -3.62436
H          3.11941       -5.34536       -3.28546
H          3.74467       -3.93806       -4.14066
H          2.68010       -2.68266       -2.66957
H          1.50130       -4.73557       -1.72865
H          3.18110       -5.96569       -0.65443
H          2.11210       -5.40236        0.60212
H          4.65959       -3.87522        2.64094
H          2.98026       -4.42440        2.55655
H          3.67597       -6.70787        2.17219
H          4.80106       -6.15644        3.42558
H          5.72669       -7.12682        1.03955
H          6.53108       -5.74042        1.80532

--Link1--
%chk=JID_10825.chk
%mem=8GB
%nprocshared=4
# B3LYP/6-311++G(d,p) empiricaldispersion=gd3bj scf=xqc pop=npa geom=check

CID_69253002_JID_10825_Energie_neutraal

0 1

--Link1--
%chk=JID_10825.chk
%mem=8GB
%nprocshared=4
# B3LYP/6-311++G(d,p) empiricaldispersion=gd3bj scf=xqc pop=npa geom=check

CID_69253002_JID_10825_Energie_kation

1 2

--Link1--
%chk=JID_10825.chk
%mem=8GB
%nprocshared=4
# B3LYP/6-311++G(d,p) empiricaldispersion=gd3bj scf=xqc pop=npa geom=check

CID_69253002_JID_10825_Energie_anion

-1 2
