%chk=JID_9915.chk
%mem=8GB
%nprocshared=4
# opt freq B3LYP/6-31G(d) empiricaldispersion=gd3bj scf=xqc

CID_63834382_JID_9915_neutraal

0 1
C          1.00651       -0.09976       -0.00248
C          0.67813        0.53778       -1.35507
C          1.35596       -0.26000       -2.46812
N         -0.77612        0.55158       -1.47427
C         -1.35555        1.64970       -2.23079
C         -1.29702        1.54833       -3.75941
C         -1.81553        0.23952       -4.35859
C         -3.17448       -0.11944       -3.89707
N         -3.57236       -1.18507       -3.23606
N         -4.92206       -1.01931       -3.01048
C         -5.24882        0.13423       -3.55228
O         -4.18786        0.76663       -4.14465
C         -6.56092        0.82747       -3.58392
C         -7.25461        0.72639       -4.96499
C         -7.71034       -0.72706       -5.20161
C         -8.41567        1.77655       -5.15306
C         -7.84365        3.21267       -5.13639
C         -9.10940        1.58592       -6.51994
C         -9.48599        1.66935       -4.05064
H          0.64928       -1.13453        0.05553
H          0.54956        0.46330        0.81940
H          2.08878       -0.10906        0.16771
H          1.07795        1.55899       -1.34505
H          0.96375       -1.28139       -2.52791
H          1.22394        0.21161       -3.44464
H          2.43470       -0.32940       -2.28831
H         -1.15588       -0.35693       -1.73807
H         -2.40771        1.72626       -1.93047
H         -0.90739        2.60102       -1.91768
H         -1.88298        2.38155       -4.17019
H         -0.26983        1.71385       -4.10288
H         -1.82209        0.32516       -5.45166
H         -1.12830       -0.57965       -4.11988
H         -7.20451        0.40298       -2.80417
H         -6.38044        1.86995       -3.30637
H         -6.50289        0.94232       -5.73859
H         -8.47954       -1.03157       -4.48559
H         -8.10380       -0.86710       -6.21228
H         -6.87298       -1.42578       -5.10277
H         -7.03134        3.32177       -5.86353
H         -8.61580        3.94812       -5.39177
H         -7.45821        3.49471       -4.15225
H         -9.68023        0.65262       -6.56167
H         -9.81981        2.39667       -6.72042
H         -8.37800        1.57812       -7.33565
H         -9.94832        0.67756       -4.02997
H         -9.06815        1.86867       -3.05851
H        -10.28893        2.39806       -4.21339

--Link1--
%chk=JID_9915.chk
%mem=8GB
%nprocshared=4
# B3LYP/6-311++G(d,p) empiricaldispersion=gd3bj scf=xqc pop=npa geom=check

CID_63834382_JID_9915_Energie_neutraal

0 1

--Link1--
%chk=JID_9915.chk
%mem=8GB
%nprocshared=4
# B3LYP/6-311++G(d,p) empiricaldispersion=gd3bj scf=xqc pop=npa geom=check

CID_63834382_JID_9915_Energie_kation

1 2

--Link1--
%chk=JID_9915.chk
%mem=8GB
%nprocshared=4
# B3LYP/6-311++G(d,p) empiricaldispersion=gd3bj scf=xqc pop=npa geom=check

CID_63834382_JID_9915_Energie_anion

-1 2
