%chk=JID_6144.chk
%mem=8GB
%nprocshared=4
# opt freq B3LYP/6-31G(d) empiricaldispersion=gd3bj scf=xqc

CID_100127336_JID_6144_neutraal

0 1
C          1.00021       -0.09112        0.04120
C          0.83311       -0.57320        1.45590
C          0.14823        0.18887        2.43367
C         -0.02668       -0.29914        3.74361
N         -0.72047        0.42504        4.64733
C         -0.87490       -0.05869        5.89614
C         -0.37017       -1.26827        6.31956
C          0.35488       -2.03191        5.40823
C          0.53155       -1.55224        4.08534
C          1.25408       -2.27449        3.11567
C          1.39880       -1.79571        1.81872
N          0.80682       -3.32626        5.79201
C         -0.19423       -4.36354        5.46545
C          0.44203       -5.76038        5.60117
N          1.14933       -5.93640        6.87792
C         -0.46831        1.51938        2.06460
H          0.03727        0.21948       -0.37689
H          1.38985       -0.88203       -0.60893
H          1.70297        0.74728        0.00836
H         -1.44536        0.57583        6.56813
H         -0.54909       -1.60706        7.33265
H          1.71359       -3.22500        3.37752
H          1.95612       -2.38757        1.09625
H          0.95311       -3.35107        6.80216
H         -1.04482       -4.27996        6.15380
H         -0.57355       -4.25213        4.44257
H         -0.33496       -6.52588        5.50603
H          1.15884       -5.91259        4.78575
H          1.58103       -6.86036        6.88623
H          1.92914       -5.27506        6.88219
H         -1.47745        1.36365        1.67068
H         -0.52428        2.19642        2.92318
H          0.13031        2.04463        1.31406

--Link1--
%chk=JID_6144.chk
%mem=8GB
%nprocshared=4
# B3LYP/6-311++G(d,p) empiricaldispersion=gd3bj scf=xqc pop=npa geom=check

CID_100127336_JID_6144_Energie_neutraal

0 1

--Link1--
%chk=JID_6144.chk
%mem=8GB
%nprocshared=4
# B3LYP/6-311++G(d,p) empiricaldispersion=gd3bj scf=xqc pop=npa geom=check

CID_100127336_JID_6144_Energie_kation

1 2

--Link1--
%chk=JID_6144.chk
%mem=8GB
%nprocshared=4
# B3LYP/6-311++G(d,p) empiricaldispersion=gd3bj scf=xqc pop=npa geom=check

CID_100127336_JID_6144_Energie_anion

-1 2
