%chk=JID_6710.chk
%mem=8GB
%nprocshared=4
# opt freq B3LYP/6-31G(d) empiricaldispersion=gd3bj scf=xqc

CID_79763783_JID_6710_neutraal

0 1
C          1.04808       -0.01553        0.08630
C          0.45693       -0.98157        1.10143
C          0.71557       -2.46010        0.80172
C          0.81623       -3.03914        2.20490
C          1.53062       -1.93620        2.94734
O          1.07108       -0.70505        2.37892
C         -0.36292       -3.15281       -0.04127
C         -0.48549       -2.62654       -1.45414
C         -1.66274       -1.99485       -1.87402
C         -1.76819       -1.48830       -3.17172
C         -0.70628       -1.59990       -4.07112
C          0.46257       -2.24334       -3.66716
C          0.57048       -2.75473       -2.36923
O         -0.93822       -1.05027       -5.30144
C          0.16118       -1.01024       -6.20262
O         -0.06889       -4.55218       -0.10221
H          0.93799        1.01626        0.43830
H          0.56614       -0.09230       -0.88977
H          2.12299       -0.18696       -0.03773
H         -0.61468       -0.78206        1.21942
H          1.70071       -2.58284        0.32994
H          1.35345       -3.99070        2.25037
H         -0.18273       -3.18728        2.63310
H          2.61428       -1.99230        2.79810
H          1.32441       -1.94713        4.02110
H         -1.33247       -3.06828        0.46489
H         -2.50600       -1.88151       -1.19616
H         -2.68521       -0.99331       -3.48338
H          1.30873       -2.36541       -4.33487
H          1.49197       -3.25319       -2.07188
H          1.00203       -0.45123       -5.77824
H          0.46524       -2.02009       -6.49647
H         -0.16550       -0.48478       -7.10514
H         -0.52453       -4.90890       -0.88504

--Link1--
%chk=JID_6710.chk
%mem=8GB
%nprocshared=4
# B3LYP/6-311++G(d,p) empiricaldispersion=gd3bj scf=xqc pop=npa geom=check

CID_79763783_JID_6710_Energie_neutraal

0 1

--Link1--
%chk=JID_6710.chk
%mem=8GB
%nprocshared=4
# B3LYP/6-311++G(d,p) empiricaldispersion=gd3bj scf=xqc pop=npa geom=check

CID_79763783_JID_6710_Energie_kation

1 2

--Link1--
%chk=JID_6710.chk
%mem=8GB
%nprocshared=4
# B3LYP/6-311++G(d,p) empiricaldispersion=gd3bj scf=xqc pop=npa geom=check

CID_79763783_JID_6710_Energie_anion

-1 2
