%chk=JID_7872.chk
%mem=8GB
%nprocshared=4
# opt freq B3LYP/6-31G(d) empiricaldispersion=gd3bj scf=xqc

CID_65951846_JID_7872_neutraal

0 1
C          0.93771       -0.05185       -0.05858
C         -0.06625        0.12881        1.06887
C          0.14023       -0.80779        2.28674
N          0.36629        0.35281        3.15677
C          0.26473        1.29299        2.03870
C         -0.66200        0.49436        4.20606
C         -2.14746        0.93101        3.96464
C         -2.41325        2.41682        3.73394
C         -1.72369        3.41040        4.44851
C         -1.99528        4.76439        4.23890
C         -2.97034        5.14877        3.32458
C         -3.68678        4.17970        2.62775
C         -3.42960        2.81791        2.84106
C         -4.20695        1.78751        2.06303
C         -4.10448        0.42021        2.72394
O         -2.72499        0.10058        2.93349
O         -1.40144        0.13145        0.50406
H          0.85758        0.76434       -0.78446
H          0.76052       -0.99370       -0.58868
H          1.96780       -0.06784        0.31386
H         -0.71407       -1.44883        2.53143
H          1.01663       -1.46304        2.21213
H          1.21401        1.80068        1.82648
H         -0.49585        2.07194        2.08472
H         -0.71415       -0.48649        4.70151
H         -0.22555        1.14705        4.96990
H         -2.68119        0.68296        4.89414
H         -0.96111        3.15343        5.17861
H         -1.44139        5.52005        4.79042
H         -3.17461        6.20280        3.15633
H         -4.44810        4.48983        1.91539
H         -3.78366        1.74342        1.05257
H         -5.26092        2.07595        1.98447
H         -4.53033       -0.34402        2.06595
H         -4.64771        0.37870        3.67606
H         -1.97921        0.10886        1.29424

--Link1--
%chk=JID_7872.chk
%mem=8GB
%nprocshared=4
# B3LYP/6-311++G(d,p) empiricaldispersion=gd3bj scf=xqc pop=npa geom=check

CID_65951846_JID_7872_Energie_neutraal

0 1

--Link1--
%chk=JID_7872.chk
%mem=8GB
%nprocshared=4
# B3LYP/6-311++G(d,p) empiricaldispersion=gd3bj scf=xqc pop=npa geom=check

CID_65951846_JID_7872_Energie_kation

1 2

--Link1--
%chk=JID_7872.chk
%mem=8GB
%nprocshared=4
# B3LYP/6-311++G(d,p) empiricaldispersion=gd3bj scf=xqc pop=npa geom=check

CID_65951846_JID_7872_Energie_anion

-1 2
