%chk=JID_8792.chk
%mem=8GB
%nprocshared=4
# opt freq B3LYP/6-31G(d) empiricaldispersion=gd3bj scf=xqc

CID_103812109_JID_8792_neutraal

0 1
C          0.96175        0.07189       -0.05803
C          0.82084       -0.46646        1.36553
C          1.83063        0.22716        2.28413
C         -0.60122       -0.28459        1.92494
C         -1.73121       -0.93432        1.11258
C         -1.55287       -2.43103        0.80877
N         -1.42817       -3.23700        2.01647
C         -1.63037       -4.58083        2.15920
O         -1.26473       -5.09800        3.21470
C         -2.27801       -5.36273        1.01913
C         -1.32753       -5.55623       -0.19640
C          0.00117       -6.19473        0.24938
C         -0.41211       -7.62492        0.61971
C         -1.91485       -7.65011        0.28646
C         -1.97513       -6.73040       -0.93445
C         -2.73840       -6.82691        1.30705
N         -2.67143       -7.35872        2.65933
O         -2.95693       -0.75008        1.83110
H          0.68131        1.12933       -0.11120
H          0.33250       -0.48259       -0.76052
H          1.99599       -0.02048       -0.40696
H          1.06965       -1.53425        1.35637
H          1.64951        1.30638        2.33229
H          1.76993       -0.17314        3.30169
H          2.85375        0.07124        1.92584
H         -0.63572       -0.65904        2.95679
H         -0.82453        0.78769        2.01666
H         -1.84816       -0.39789        0.16479
H         -2.42435       -2.78414        0.24965
H         -0.66285       -2.60840        0.19867
H         -0.87448       -2.86979        2.78318
H         -3.17349       -4.80535        0.71394
H         -1.19152       -4.66483       -0.81019
H          0.48662       -5.67355        1.07865
H          0.71242       -6.21715       -0.58499
H         -0.19373       -7.86067        1.66481
H          0.13312       -8.34222       -0.00464
H         -2.30700       -8.65674        0.12168
H         -1.37901       -7.09334       -1.77867
H         -2.99474       -6.51837       -1.27312
H         -3.79196       -6.90219        1.00259
H         -1.78196       -7.06503        3.08344
H         -3.35828       -6.87986        3.24372
H         -2.97004       -1.40998        2.54897

--Link1--
%chk=JID_8792.chk
%mem=8GB
%nprocshared=4
# B3LYP/6-311++G(d,p) empiricaldispersion=gd3bj scf=xqc pop=npa geom=check

CID_103812109_JID_8792_Energie_neutraal

0 1

--Link1--
%chk=JID_8792.chk
%mem=8GB
%nprocshared=4
# B3LYP/6-311++G(d,p) empiricaldispersion=gd3bj scf=xqc pop=npa geom=check

CID_103812109_JID_8792_Energie_kation

1 2

--Link1--
%chk=JID_8792.chk
%mem=8GB
%nprocshared=4
# B3LYP/6-311++G(d,p) empiricaldispersion=gd3bj scf=xqc pop=npa geom=check

CID_103812109_JID_8792_Energie_anion

-1 2
