%chk=JID_7027.chk
%mem=8GB
%nprocshared=4
# opt freq B3LYP/6-31G(d) empiricaldispersion=gd3bj scf=xqc

CID_17758473_JID_7027_neutraal

0 1
C          1.06819       -0.07254        0.00938
C         -0.10655       -0.17828       -0.95428
C          0.19895       -1.04802       -2.18877
C         -0.96871       -1.47759       -3.15713
N         -0.57813       -2.85697       -2.93946
C          0.23537       -2.58824       -1.88530
O          0.69606       -3.33437       -1.05711
S         -2.67977       -1.11285       -2.67962
C         -3.04904       -2.27991       -1.34051
C         -3.43802       -3.66754       -1.79348
C         -2.78724       -4.78848       -1.25210
C         -3.14358       -6.07888       -1.64674
C         -4.16486       -6.26723       -2.57459
C         -4.83433       -5.16627       -3.10407
C         -4.47819       -3.87449       -2.71184
C          1.45431       -0.58890       -2.97333
C          1.31041        0.82227       -3.52449
H          1.43492       -1.05907        0.30730
H          0.76127        0.46153        0.91468
H          1.90221        0.48329       -0.42844
H         -0.94512       -0.58776       -0.38504
H         -0.41072        0.82778       -1.26474
H         -0.79412       -1.19483       -4.20188
H         -1.11627       -3.70945       -2.99266
H         -2.21852       -2.32509       -0.63184
H         -3.89607       -1.86950       -0.77787
H         -1.98824       -4.66597       -0.52126
H         -2.62561       -6.93704       -1.22547
H         -4.44436       -7.27238       -2.87933
H         -5.63858       -5.31268       -3.82061
H         -5.02108       -3.02876       -3.12974
H          2.34758       -0.64871       -2.34176
H          1.64136       -1.26853       -3.81508
H          1.25535        1.56373       -2.72216
H          2.17601        1.07234       -4.14624
H          0.41058        0.92332       -4.13873

--Link1--
%chk=JID_7027.chk
%mem=8GB
%nprocshared=4
# B3LYP/6-311++G(d,p) empiricaldispersion=gd3bj scf=xqc pop=npa geom=check

CID_17758473_JID_7027_Energie_neutraal

0 1

--Link1--
%chk=JID_7027.chk
%mem=8GB
%nprocshared=4
# B3LYP/6-311++G(d,p) empiricaldispersion=gd3bj scf=xqc pop=npa geom=check

CID_17758473_JID_7027_Energie_kation

1 2

--Link1--
%chk=JID_7027.chk
%mem=8GB
%nprocshared=4
# B3LYP/6-311++G(d,p) empiricaldispersion=gd3bj scf=xqc pop=npa geom=check

CID_17758473_JID_7027_Energie_anion

-1 2
