%chk=JID_8426.chk
%mem=8GB
%nprocshared=4
# opt freq B3LYP/6-31G(d) empiricaldispersion=gd3bj scf=xqc

CID_120038725_JID_8426_neutraal

0 1
C          1.05465       -0.08369        0.00288
C          0.25115        0.96386       -0.75466
C          0.91855        1.43076       -2.05212
N          0.95633        0.36742       -3.05350
C          1.47226        0.81922       -4.35247
C          2.96957        1.18827       -4.37078
N          3.80774        0.13246       -3.80817
C          4.09243       -1.06463       -4.42012
O          4.13913       -2.09620       -3.75438
C          4.32546       -1.12644       -5.87823
C          5.00451       -0.12588       -6.59037
C          5.21428       -0.23778       -7.96734
C          4.77152       -1.36503       -8.67256
C          4.13281       -2.39856       -7.96556
C          3.93696       -2.26341       -6.59692
N          3.34120       -3.43180       -6.19604
N          3.08903       -4.28900       -7.20390
C          3.58139       -3.66152       -8.27558
H          1.13392       -1.01648       -0.56322
H          0.56768       -0.31349        0.95598
H          2.06547        0.27729        0.21746
H         -0.75163        0.57280       -0.96596
H          0.11679        1.83534       -0.10226
H          0.34250        2.27840       -2.44198
H          1.92789        1.79138       -1.82482
H          1.50864       -0.42415       -2.72351
H          1.30816        0.00016       -5.06325
H          0.87958        1.66451       -4.72167
H          3.26526        1.40982       -5.39766
H          3.15373        2.08746       -3.77412
H          3.71028        0.00973       -2.80734
H          5.39306        0.74503       -6.06677
H          5.73794        0.55397       -8.49943
H          4.94167       -1.44646       -9.74246
H          3.09892       -3.69685       -5.24507
H          3.52348       -4.14981       -9.23969

--Link1--
%chk=JID_8426.chk
%mem=8GB
%nprocshared=4
# B3LYP/6-311++G(d,p) empiricaldispersion=gd3bj scf=xqc pop=npa geom=check

CID_120038725_JID_8426_Energie_neutraal

0 1

--Link1--
%chk=JID_8426.chk
%mem=8GB
%nprocshared=4
# B3LYP/6-311++G(d,p) empiricaldispersion=gd3bj scf=xqc pop=npa geom=check

CID_120038725_JID_8426_Energie_kation

1 2

--Link1--
%chk=JID_8426.chk
%mem=8GB
%nprocshared=4
# B3LYP/6-311++G(d,p) empiricaldispersion=gd3bj scf=xqc pop=npa geom=check

CID_120038725_JID_8426_Energie_anion

-1 2
