%chk=JID_8649.chk
%mem=8GB
%nprocshared=4
# opt freq B3LYP/6-31G(d) empiricaldispersion=gd3bj scf=xqc

CID_105769640_JID_8649_neutraal

0 1
C          1.06172        0.07868        0.00087
C          0.26422       -1.05027       -0.63322
N         -0.13334       -2.00034        0.40273
C         -0.75611       -3.15354       -0.08753
C         -1.88038       -3.10114       -0.88375
C         -2.39271       -4.29416       -1.33493
N         -1.86201       -5.46991       -0.97302
C         -0.79294       -5.43239       -0.15872
N         -0.20374       -4.31217        0.28985
C         -0.18627       -6.73704        0.25173
N         -3.51118       -4.39493       -2.15337
C         -3.54082       -3.73795       -3.47472
C         -3.96120       -2.26884       -3.39756
C         -2.94600       -1.32249       -4.01149
O         -1.62572       -1.75789       -3.71692
C         -1.27954       -2.92029       -4.46766
C         -2.31463       -4.04623       -4.34342
C          0.11500       -3.36857       -4.04772
H          0.46700        0.60198        0.75711
H          1.36569        0.80461       -0.75954
H          1.96420       -0.30331        0.48980
H         -0.61285       -0.61881       -1.12798
H          0.88283       -1.54366       -1.39262
H          0.66702       -2.35236        0.92734
H         -2.33715       -2.15591       -1.12592
H          0.76662       -6.88098       -0.26587
H         -0.00876       -6.74728        1.33138
H         -0.84813       -7.57268        0.00436
H         -3.63673       -5.40356       -2.25249
H         -4.37885       -4.24417       -3.97572
H         -4.91986       -2.12573       -3.91276
H         -4.15692       -1.97472       -2.36015
H         -3.07590       -0.31763       -3.59651
H         -3.08072       -1.24248       -5.09714
H         -1.21087       -2.62064       -5.52217
H         -1.84419       -4.99416       -4.05307
H         -2.68040       -4.23639       -5.36338
H          0.46207       -4.20681       -4.65975
H          0.82824       -2.54353       -4.15064
H          0.13907       -3.67344       -2.99831

--Link1--
%chk=JID_8649.chk
%mem=8GB
%nprocshared=4
# B3LYP/6-311++G(d,p) empiricaldispersion=gd3bj scf=xqc pop=npa geom=check

CID_105769640_JID_8649_Energie_neutraal

0 1

--Link1--
%chk=JID_8649.chk
%mem=8GB
%nprocshared=4
# B3LYP/6-311++G(d,p) empiricaldispersion=gd3bj scf=xqc pop=npa geom=check

CID_105769640_JID_8649_Energie_kation

1 2

--Link1--
%chk=JID_8649.chk
%mem=8GB
%nprocshared=4
# B3LYP/6-311++G(d,p) empiricaldispersion=gd3bj scf=xqc pop=npa geom=check

CID_105769640_JID_8649_Energie_anion

-1 2
