%chk=JID_1842.chk
%mem=8GB
%nprocshared=4
# opt=(cartesian,calcfc) freq B3LYP/6-31G(d) empiricaldispersion=gd3bj scf=xqc

CID_123552417_JID_1842_neutraal

0 1
6	-1.463759	 -0.284305	 1.206633
6	-2.054870	 0.349853	 -0.051087
8	-3.472558	 0.460418	 -0.027626
6	-4.139697	 -0.763266	 -0.224486
6	1.389605	 1.892476	 -0.225912
6	2.026452	 1.370252	 0.901271
6	2.397027	 0.028690	 0.954056
6	2.132929	 -0.825603	 -0.129514
6	1.493343	 -0.296556	 -1.262839
6	1.131122	 1.047497	 -1.306297
7	2.549055	 -2.159811	 -0.102078
1	-1.773369	 0.276411	 2.095059
1	-0.372012	 -0.273889	 1.151392
1	-1.786796	 -1.323216	 1.329182
1	-1.683487	 1.372513	 -0.156271
1	-1.733793	 -0.209733	 -0.947317
1	-3.841537	 -1.240656	 -1.172763
1	-3.962000	 -1.481470	 0.591220
1	-5.208717	 -0.539242	 -0.263200
1	1.100781	 2.938035	 -0.262811
1	2.234700	 2.010849	 1.753543
1	2.895936	 -0.366984	 1.835666
1	1.289631	 -0.943963	 -2.110360
1	0.634897	 1.434820	 -2.191387
1	2.028282	 -2.777161	 -0.712225
1	2.641645	 -2.555204	 0.824875

--Link1--
%chk=JID_1842.chk
%mem=8GB
%nprocshared=4
# B3LYP/6-311++G(d,p) empiricaldispersion=gd3bj scf=xqc pop=npa geom=check

CID_123552417_JID_1842_Energie_neutraal

0 1

--Link1--
%chk=JID_1842.chk
%mem=8GB
%nprocshared=4
# B3LYP/6-311++G(d,p) empiricaldispersion=gd3bj scf=xqc pop=npa geom=check

CID_123552417_JID_1842_Energie_kation

1 2

--Link1--
%chk=JID_1842.chk
%mem=8GB
%nprocshared=4
# B3LYP/6-311++G(d,p) empiricaldispersion=gd3bj scf=xqc pop=npa geom=check

CID_123552417_JID_1842_Energie_anion

-1 2
