%chk=JID_4916.chk
%mem=8GB
%nprocshared=4
# opt freq B3LYP/6-31G(d) empiricaldispersion=gd3bj scf=xqc

CID_137444109_JID_4916_neutraal

0 1
C          0.33400        1.00600       -0.17300
C          1.02100       -0.32320        0.18753
C         -0.30762       -1.03942       -0.20566
C         -1.00405        0.31206        0.14171
C         -0.76266       -2.35311        0.57754
C         -2.10646       -2.81415        0.56377
C         -2.46525       -3.99263        1.25950
C         -1.52781       -4.69631        2.00812
C         -0.20975       -4.26337        2.03553
C          0.16223       -3.12122        1.32187
O         -3.73309       -4.52940        1.24265
C         -4.49743       -4.04571        0.13323
C         -4.43679       -2.52648        0.04959
N         -3.06594       -2.07203       -0.17997
H          0.44760        1.29187       -1.22494
H          0.58750        1.86050        0.45905
H          1.89473       -0.58016       -0.41732
H          1.28938       -0.39187        1.24826
H         -0.33483       -1.23091       -1.29081
H         -1.31407        0.40610        1.18924
H         -1.83883        0.59945       -0.50319
H         -1.82287       -5.58996        2.54977
H          0.53341       -4.81435        2.60543
H          1.20628       -2.81507        1.35415
H         -5.53282       -4.36837        0.28384
H         -4.13368       -4.51890       -0.78793
H         -5.07500       -2.16372       -0.76271
H         -4.80050       -2.08207        0.98403
H         -2.79751       -2.07734       -1.16210

--Link1--
%chk=JID_4916.chk
%mem=8GB
%nprocshared=4
# B3LYP/6-311++G(d,p) empiricaldispersion=gd3bj scf=xqc pop=npa geom=check

CID_137444109_JID_4916_Energie_neutraal

0 1

--Link1--
%chk=JID_4916.chk
%mem=8GB
%nprocshared=4
# B3LYP/6-311++G(d,p) empiricaldispersion=gd3bj scf=xqc pop=npa geom=check

CID_137444109_JID_4916_Energie_kation

1 2

--Link1--
%chk=JID_4916.chk
%mem=8GB
%nprocshared=4
# B3LYP/6-311++G(d,p) empiricaldispersion=gd3bj scf=xqc pop=npa geom=check

CID_137444109_JID_4916_Energie_anion

-1 2
