%chk=JID_10486.chk
%mem=8GB
%nprocshared=4
# opt freq B3LYP/6-31G(d) empiricaldispersion=gd3bj scf=xqc

CID_80907039_JID_10486_neutraal

0 1
C          2.19400       -0.06300        0.00100
C          0.76955        0.12320       -0.33278
C          0.01785       -0.06806       -1.47058
C         -1.31050        0.29804       -1.13696
C         -1.28764        0.68853        0.18710
O         -0.01963        0.57236        0.67723
C         -2.34765        1.14518        1.14157
N         -1.85428        1.93947        2.28363
C         -1.76457        3.37261        2.01239
C         -2.59627        1.64902        3.44608
N         -3.72473        2.35093        3.65503
C         -4.42915        2.04026        4.74218
N         -4.13753        1.08073        5.61902
C         -3.00894        0.37179        5.39248
C         -2.15967        0.63373        4.31447
C         -0.82999       -0.07203        4.06999
C          0.10793       -0.09780        5.28352
C         -1.00929       -1.47582        3.48402
N         -2.70097       -0.65350        6.33051
N         -3.59637       -0.80721        7.42632
H          2.80446       -0.11041       -0.90602
H          2.56200        0.76607        0.61345
H          2.33526       -0.99360        0.55893
H          0.38165       -0.43038       -2.42218
H         -2.17970        0.27013       -1.77855
H         -3.10062        1.72085        0.58576
H         -2.86412        0.23728        1.48298
H         -2.73114        3.80781        1.73218
H         -1.37169        3.91110        2.88280
H         -1.06664        3.55062        1.18662
H         -5.32835        2.61712        4.92563
H         -0.26705        0.50050        3.32459
H         -0.20648       -0.81263        6.04846
H          1.11593       -0.39557        4.97173
H          0.18191        0.89212        5.74636
H         -1.65393       -1.46179        2.59997
H         -0.04055       -1.88766        3.17952
H         -1.44942       -2.17502        4.19982
H         -2.52598       -1.52443        5.82825
H         -3.43357       -0.02828        8.07257
H         -4.54798       -0.61975        7.08473

--Link1--
%chk=JID_10486.chk
%mem=8GB
%nprocshared=4
# B3LYP/6-311++G(d,p) empiricaldispersion=gd3bj scf=xqc pop=npa geom=check

CID_80907039_JID_10486_Energie_neutraal

0 1

--Link1--
%chk=JID_10486.chk
%mem=8GB
%nprocshared=4
# B3LYP/6-311++G(d,p) empiricaldispersion=gd3bj scf=xqc pop=npa geom=check

CID_80907039_JID_10486_Energie_kation

1 2

--Link1--
%chk=JID_10486.chk
%mem=8GB
%nprocshared=4
# B3LYP/6-311++G(d,p) empiricaldispersion=gd3bj scf=xqc pop=npa geom=check

CID_80907039_JID_10486_Energie_anion

-1 2
