%chk=JID_8594.chk
%mem=8GB
%nprocshared=4
# opt freq B3LYP/6-31G(d) empiricaldispersion=gd3bj scf=xqc

CID_114818818_JID_8594_neutraal

0 1
C         -1.50500        0.02200       -0.20100
C         -0.41757        0.96725        0.25799
C          0.89644        0.61300       -0.42406
N          1.34916       -0.78406       -0.19596
C          0.28409       -1.77328       -0.54295
C         -1.07588       -1.39768        0.10364
C          0.62501       -3.22360       -0.08895
N         -0.45176       -4.21575       -0.21405
C          2.69751       -0.94306       -0.83152
C          3.66694       -1.90858       -0.11287
C          3.98843       -3.25433       -0.77025
C          4.01154       -3.25864       -2.31554
C          3.99817       -4.69900       -2.86131
C          5.42316       -5.19763       -2.67735
C          6.30718       -3.96054       -2.81387
C          5.36726       -2.75196       -2.84660
C          2.83025       -2.47130       -2.89810
C          2.74830       -1.05213       -2.36424
H         -2.44451        0.25057        0.31407
H         -1.68621        0.14083       -1.27596
H         -0.69550        1.99923        0.01529
H         -0.30211        0.91348        1.34769
H          0.79563        0.81585       -1.49719
H          1.64713        1.31232       -0.03408
H          0.13283       -1.77178       -1.63013
H         -1.01999       -1.53378        1.19222
H         -1.86831       -2.06065       -0.26260
H          1.41785       -3.60156       -0.71914
H          0.98168       -3.22341        0.94766
H         -0.07440       -5.13416        0.02447
H         -1.16189       -4.02626        0.49096
H          3.18453        0.02388       -0.62777
H          4.62618       -1.37888       -0.01145
H          3.34198       -2.07718        0.92184
H          3.29228       -4.01275       -0.40361
H          4.95700       -3.58907       -0.37457
H          3.27032       -5.34193       -2.35520
H          3.75042       -4.70387       -3.93085
H          5.67915       -5.96981       -3.40944
H          5.54583       -5.63786       -1.68100
H          6.90942       -4.00321       -3.72774
H          7.00131       -3.89629       -1.96892
H          5.27270       -2.40984       -3.88508
H          5.77115       -1.91502       -2.26762
H          1.89054       -2.99853       -2.71066
H          2.91731       -2.42123       -3.99164
H          1.89787       -0.54216       -2.82956
H          3.63126       -0.49969       -2.71464

--Link1--
%chk=JID_8594.chk
%mem=8GB
%nprocshared=4
# B3LYP/6-311++G(d,p) empiricaldispersion=gd3bj scf=xqc pop=npa geom=check

CID_114818818_JID_8594_Energie_neutraal

0 1

--Link1--
%chk=JID_8594.chk
%mem=8GB
%nprocshared=4
# B3LYP/6-311++G(d,p) empiricaldispersion=gd3bj scf=xqc pop=npa geom=check

CID_114818818_JID_8594_Energie_kation

1 2

--Link1--
%chk=JID_8594.chk
%mem=8GB
%nprocshared=4
# B3LYP/6-311++G(d,p) empiricaldispersion=gd3bj scf=xqc pop=npa geom=check

CID_114818818_JID_8594_Energie_anion

-1 2
