%chk=JID_9042.chk
%mem=8GB
%nprocshared=4
# opt freq B3LYP/6-31G(d) empiricaldispersion=gd3bj scf=xqc

CID_63354099_JID_9042_neutraal

0 1
C         -0.02900        0.88300        0.00000
C         -0.83591       -0.36394       -0.20173
C          0.58122       -0.46297        0.31537
C          1.66839       -1.03164       -0.56496
C          2.91516       -0.43647       -0.62388
C          3.86650       -1.03121       -1.42041
N          3.63904       -2.15439       -2.10250
C          2.40500       -2.67699       -2.00259
N          1.40716       -2.15297       -1.26832
C          2.12635       -3.91986       -2.74651
C          3.16782       -4.76995       -3.16624
C          2.88850       -5.95528       -3.86373
C          1.57021       -6.31273       -4.16747
C          0.52913       -5.48128       -3.76344
C          0.80644       -4.30482       -3.05903
N          3.99051       -6.83503       -4.27343
O          5.14199       -6.50864       -3.95277
O          3.70437       -7.85575       -4.91618
N          5.15036       -0.49552       -1.50816
H         -0.29058        1.52733        0.83160
H          0.29809        1.41528       -0.88616
H         -1.64018       -0.57364        0.49390
H         -1.03899       -0.68235       -1.21837
H          0.67635       -0.71386        1.36970
H          3.13736        0.45435       -0.05129
H          4.19793       -4.50133       -2.93170
H          1.34020       -7.22767       -4.70946
H         -0.50129       -5.74528       -3.99132
H         -0.02698       -3.67251       -2.75107
H          5.67632       -1.06064       -2.17098
H          5.13884        0.48183       -1.77662

--Link1--
%chk=JID_9042.chk
%mem=8GB
%nprocshared=4
# B3LYP/6-311++G(d,p) empiricaldispersion=gd3bj scf=xqc pop=npa geom=check

CID_63354099_JID_9042_Energie_neutraal

0 1

--Link1--
%chk=JID_9042.chk
%mem=8GB
%nprocshared=4
# B3LYP/6-311++G(d,p) empiricaldispersion=gd3bj scf=xqc pop=npa geom=check

CID_63354099_JID_9042_Energie_kation

1 2

--Link1--
%chk=JID_9042.chk
%mem=8GB
%nprocshared=4
# B3LYP/6-311++G(d,p) empiricaldispersion=gd3bj scf=xqc pop=npa geom=check

CID_63354099_JID_9042_Energie_anion

-1 2
