%chk=JID_5254.chk
%mem=8GB
%nprocshared=4
# opt freq B3LYP/6-31G(d) empiricaldispersion=gd3bj scf=xqc

CID_65496674_JID_5254_neutraal

0 1
C          1.06015       -0.05823        0.05469
C          0.31922       -1.37126        0.20834
N          0.79523       -2.10923        1.36615
C          0.15677       -2.45613        2.52026
O          0.76512       -3.17590        3.31933
C         -1.26451       -1.94967        2.85484
C         -1.21864       -0.45357        3.16018
N         -2.19128       -2.28906        1.76220
C         -3.59839       -2.16899        2.09824
C         -4.33926       -1.73697        0.83722
C         -5.32881       -0.58789        0.98799
C         -4.04100       -0.35766        0.26000
C         -4.73899       -2.85507       -0.11150
C         -3.52350       -3.27330       -0.82380
N         -2.57615       -3.63183       -1.39157
H          0.91029        0.58622        0.92659
H          0.70989        0.47702       -0.83316
H          2.13720       -0.22674       -0.05047
H         -0.74846       -1.17128        0.25494
H          0.50284       -2.00488       -0.66553
H          1.71133       -2.53398        1.29207
H         -1.56971       -2.49180        3.75970
H         -1.07742        0.14657        2.25649
H         -2.14129       -0.11339        3.64038
H         -0.38939       -0.22101        3.83769
H         -1.98536       -3.23604        1.43751
H         -3.98743       -3.12238        2.47366
H         -3.76841       -1.43207        2.89019
H         -6.24205       -0.59173        0.40249
H         -5.44658       -0.11229        1.95635
H         -3.28066        0.24764        0.74329
H         -4.07560       -0.22146       -0.81545
H         -5.17565       -3.69078        0.44483
H         -5.48890       -2.51368       -0.83407

--Link1--
%chk=JID_5254.chk
%mem=8GB
%nprocshared=4
# B3LYP/6-311++G(d,p) empiricaldispersion=gd3bj scf=xqc pop=npa geom=check

CID_65496674_JID_5254_Energie_neutraal

0 1

--Link1--
%chk=JID_5254.chk
%mem=8GB
%nprocshared=4
# B3LYP/6-311++G(d,p) empiricaldispersion=gd3bj scf=xqc pop=npa geom=check

CID_65496674_JID_5254_Energie_kation

1 2

--Link1--
%chk=JID_5254.chk
%mem=8GB
%nprocshared=4
# B3LYP/6-311++G(d,p) empiricaldispersion=gd3bj scf=xqc pop=npa geom=check

CID_65496674_JID_5254_Energie_anion

-1 2
