%chk=JID_8724.chk
%mem=8GB
%nprocshared=4
# opt freq B3LYP/6-31G(d) empiricaldispersion=gd3bj scf=xqc

CID_62611022_JID_8724_neutraal

0 1
C          0.92524        0.01538       -0.06460
C          0.20320       -1.20824       -0.60172
N          0.89281       -1.70890       -1.79272
C          0.41394       -3.03312       -2.18026
C          0.96064       -3.49144       -3.53345
C          0.73878       -5.00717       -3.54217
C          0.42128       -5.40663       -2.09543
C          0.81404       -4.19063       -1.24370
C          2.32011       -4.22756       -0.88717
N          2.48678       -4.76431        0.47860
C          3.37083       -5.92208        0.50957
C          2.81199       -3.69140        1.44293
C          4.25888       -3.14666        1.37247
C          4.67883       -2.37250        2.62695
C          3.48623       -1.77581        3.35868
C          2.50954       -2.86622        3.83587
C          2.45883       -4.08517        2.88671
C          1.11888       -2.26004        4.03980
H          1.95722       -0.22484        0.21345
H          0.41570        0.39302        0.82775
H          0.94791        0.82095       -0.80622
H          0.17667       -1.95785        0.19486
H         -0.83253       -0.94838       -0.84824
H          0.75650       -1.05117       -2.56033
H         -0.68259       -3.00257       -2.26349
H          0.45544       -3.00054       -4.37182
H          2.03273       -3.27577       -3.62443
H          1.63550       -5.52020       -3.90638
H         -0.08891       -5.28280       -4.20451
H          0.93167       -6.32858       -1.80026
H         -0.65703       -5.58703       -2.00225
H          0.20573       -4.16208       -0.33142
H          2.86206       -4.84431       -1.61658
H          2.77519       -3.23566       -0.97343
H          4.36713       -5.70791        0.10994
H          3.47907       -6.31960        1.52331
H          2.94196       -6.73348       -0.08983
H          2.14138       -2.85349        1.20811
H          4.35097       -2.48858        0.49967
H          4.99169       -3.94677        1.22614
H          5.38863       -1.58440        2.35060
H          5.21417       -3.04795        3.30632
H          2.97961       -1.06608        2.69169
H          3.83179       -1.19388        4.22154
H          2.85029       -3.22979        4.81444
H          3.17500       -4.83473        3.24753
H          1.46954       -4.55761        2.93026
H          0.43108       -2.99819        4.46509
H          1.16385       -1.40967        4.72867
H          0.69425       -1.90760        3.09354

--Link1--
%chk=JID_8724.chk
%mem=8GB
%nprocshared=4
# B3LYP/6-311++G(d,p) empiricaldispersion=gd3bj scf=xqc pop=npa geom=check

CID_62611022_JID_8724_Energie_neutraal

0 1

--Link1--
%chk=JID_8724.chk
%mem=8GB
%nprocshared=4
# B3LYP/6-311++G(d,p) empiricaldispersion=gd3bj scf=xqc pop=npa geom=check

CID_62611022_JID_8724_Energie_kation

1 2

--Link1--
%chk=JID_8724.chk
%mem=8GB
%nprocshared=4
# B3LYP/6-311++G(d,p) empiricaldispersion=gd3bj scf=xqc pop=npa geom=check

CID_62611022_JID_8724_Energie_anion

-1 2
