%chk=JID_10862.chk
%mem=8GB
%nprocshared=4
# opt freq B3LYP/6-31G(d) empiricaldispersion=gd3bj scf=xqc

CID_13359574_JID_10862_neutraal

0 1
C          1.07382        0.04940       -0.04594
O          1.08941        1.04035        1.70331
C          1.68565        1.93877        2.67320
C          0.89959        2.34806        3.74441
C          1.44724        3.22474        4.68574
C          2.76962        3.68153        4.56022
C          3.57217        3.26566        3.49463
C          3.02568        2.39829        2.55849
C          3.75373        1.80698        1.42821
C          4.55805        0.68993        1.76226
O          3.82694       -0.47822        1.93167
C          2.57728       -0.20927        1.46987
C          0.98045       -0.89032        1.95145
C         -0.52248       -0.01597        1.51530
C         -0.44194        1.52263        0.61402
C          1.15711        2.18507        0.12858
C          2.71257        1.30378        0.56196
C          5.93560        0.69978        2.18989
O          6.67861        1.66631        2.29484
O          6.39775       -0.53915        2.47492
H          1.59309        0.51685       -0.92174
H          0.05243       -0.13618       -0.45761
H          1.48012       -0.99293       -0.03004
H         -0.12133        1.99629        3.84224
H          0.84188        3.55557        5.52649
H          3.17590        4.35983        5.30721
H          4.59974        3.60671        3.41187
H          1.00199       -1.74182        2.62292
H         -1.47766       -0.37435        1.88820
H         -1.34009        2.11415        0.46417
H          1.26064        3.22953       -0.15803
H          7.32384       -0.38144        2.74477

--Link1--
%chk=JID_10862.chk
%mem=8GB
%nprocshared=4
# B3LYP/6-311++G(d,p) empiricaldispersion=gd3bj scf=xqc pop=npa geom=check

CID_13359574_JID_10862_Energie_neutraal

0 1

--Link1--
%chk=JID_10862.chk
%mem=8GB
%nprocshared=4
# B3LYP/6-311++G(d,p) empiricaldispersion=gd3bj scf=xqc pop=npa geom=check

CID_13359574_JID_10862_Energie_kation

1 2

--Link1--
%chk=JID_10862.chk
%mem=8GB
%nprocshared=4
# B3LYP/6-311++G(d,p) empiricaldispersion=gd3bj scf=xqc pop=npa geom=check

CID_13359574_JID_10862_Energie_anion

-1 2
