%chk=JID_9412.chk
%mem=8GB
%nprocshared=4
# opt freq B3LYP/6-31G(d) empiricaldispersion=gd3bj scf=xqc

CID_117554033_JID_9412_neutraal

0 1
C          2.27900       -0.09200       -0.00100
C          0.80027       -0.11427        0.07073
C         -0.14008       -1.12497        0.16755
N         -1.41357       -0.60072        0.13847
C         -1.27167        0.70411        0.04858
N          0.05836        1.03990        0.00791
C         -2.37968        1.72466       -0.01444
C         -2.50815        2.46040        1.34564
N         -1.35009        3.31609        1.67098
C         -1.69527        4.25795        2.73299
C         -2.24219        2.66625       -1.24958
C         -2.28969        1.87188       -2.56478
C         -3.33831        3.73818       -1.29133
C          0.09725       -2.55298        0.24049
C         -0.80591       -3.43490       -0.34775
N         -0.67699       -4.78750       -0.34342
C          0.40019       -5.28593        0.29679
C          1.34858       -4.50030        0.93129
C          1.19019       -3.11467        0.90356
H          2.64211        0.84366       -0.43933
H          2.71153       -0.18474        0.99994
H          2.65387       -0.91185       -0.62151
H          0.41265        1.98451       -0.06935
H         -3.31516        1.15973       -0.14169
H         -3.42712        3.05873        1.32959
H         -2.63752        1.72351        2.14982
H         -0.61067        2.71021        2.03133
H         -2.02660        3.73889        3.63825
H         -0.81419        4.85465        2.98864
H         -2.47798        4.95041        2.40690
H         -1.27621        3.18617       -1.21385
H         -3.22768        1.31334       -2.65528
H         -2.21348        2.54369       -3.42680
H         -1.46143        1.16049       -2.63798
H         -3.24001        4.44411       -0.46133
H         -3.27563        4.32444       -2.21477
H         -4.33539        3.28744       -1.24528
H         -1.68942       -3.06461       -0.86329
H          0.48155       -6.36899        0.29179
H          2.18917       -4.95574        1.44238
H          1.91301       -2.49085        1.41877

--Link1--
%chk=JID_9412.chk
%mem=8GB
%nprocshared=4
# B3LYP/6-311++G(d,p) empiricaldispersion=gd3bj scf=xqc pop=npa geom=check

CID_117554033_JID_9412_Energie_neutraal

0 1

--Link1--
%chk=JID_9412.chk
%mem=8GB
%nprocshared=4
# B3LYP/6-311++G(d,p) empiricaldispersion=gd3bj scf=xqc pop=npa geom=check

CID_117554033_JID_9412_Energie_kation

1 2

--Link1--
%chk=JID_9412.chk
%mem=8GB
%nprocshared=4
# B3LYP/6-311++G(d,p) empiricaldispersion=gd3bj scf=xqc pop=npa geom=check

CID_117554033_JID_9412_Energie_anion

-1 2
