%chk=JID_5095.chk
%mem=8GB
%nprocshared=4
# opt freq B3LYP/6-31G(d) empiricaldispersion=gd3bj scf=xqc

CID_721976_JID_5095_neutraal

0 1
C          1.08890       -0.03851        0.02477
N          1.17849       -0.08528       -1.42007
C          0.29959       -0.77424       -2.20526
C          0.38568       -0.96380       -3.57534
C         -0.72187       -1.69558       -4.12225
C         -1.60812       -2.10626       -3.14475
S         -1.12196       -1.52460       -1.60396
C         -2.82956       -2.90573       -3.19174
O         -3.73510       -2.79505       -2.35733
C         -2.99670       -3.93336       -4.31027
C         -4.03442       -3.47464       -5.29786
C         -3.88535       -3.50042       -6.62879
N         -0.86990       -1.92710       -5.45159
C          1.46957       -0.43748       -4.35231
N          2.34099       -0.01510       -4.99288
H          0.12769        0.36669        0.35704
H          1.87228        0.61866        0.41598
H          1.23961       -1.03180        0.45974
H          2.06045        0.25454       -1.80001
H         -2.03989       -4.17609       -4.78063
H         -3.34493       -4.86141       -3.83962
H         -4.97506       -3.11294       -4.88077
H         -4.68655       -3.16094       -7.28025
H         -2.98388       -3.87797       -7.10215
H         -0.25386       -1.48387       -6.13393
H         -1.79069       -2.08117       -5.85800

--Link1--
%chk=JID_5095.chk
%mem=8GB
%nprocshared=4
# B3LYP/6-311++G(d,p) empiricaldispersion=gd3bj scf=xqc pop=npa geom=check

CID_721976_JID_5095_Energie_neutraal

0 1

--Link1--
%chk=JID_5095.chk
%mem=8GB
%nprocshared=4
# B3LYP/6-311++G(d,p) empiricaldispersion=gd3bj scf=xqc pop=npa geom=check

CID_721976_JID_5095_Energie_kation

1 2

--Link1--
%chk=JID_5095.chk
%mem=8GB
%nprocshared=4
# B3LYP/6-311++G(d,p) empiricaldispersion=gd3bj scf=xqc pop=npa geom=check

CID_721976_JID_5095_Energie_anion

-1 2
