%chk=JID_60.chk
%mem=8GB
%nprocshared=4
# opt freq B3LYP/6-31G(d) empiricaldispersion=gd3bj scf=xqc

CID_142881204_JID_60_neutraal

0 1
C          0.96045        0.02953       -0.08697
C          0.50074        0.54269       -1.41438
C         -0.27409       -0.16111       -2.25492
C         -0.76229        0.27400       -3.56677
C         -1.53591       -0.58097       -4.27039
C         -2.12723       -0.36716       -5.58048
C         -2.90021       -1.21832       -6.28630
C         -3.43151       -0.82617       -7.64152
S         -3.34315       -2.80730       -5.71022
C         -0.35751        1.65283       -4.02800
H          0.59379       -0.98108        0.11857
H          0.60530        0.68982        0.71012
H          2.05408        0.00858       -0.05499
H          0.83894        1.54375       -1.66531
H         -0.57893       -1.16057       -1.94224
H         -1.75539       -1.54992       -3.82326
H         -1.91857        0.59407       -6.04124
H         -3.07449       -1.51987       -8.41057
H         -4.52696       -0.83688       -7.64351
H         -3.11413        0.17998       -7.93640
H         -4.08381       -3.21134       -6.75294
H         -0.72081        2.41307       -3.32733
H          0.73359        1.72919       -4.09541
H         -0.74817        1.92507       -5.01013

--Link1--
%chk=JID_60.chk
%mem=8GB
%nprocshared=4
# B3LYP/6-311++G(d,p) empiricaldispersion=gd3bj scf=xqc pop=npa geom=check

CID_142881204_JID_60_Energie_neutraal

0 1

--Link1--
%chk=JID_60.chk
%mem=8GB
%nprocshared=4
# B3LYP/6-311++G(d,p) empiricaldispersion=gd3bj scf=xqc pop=npa geom=check

CID_142881204_JID_60_Energie_kation

1 2

--Link1--
%chk=JID_60.chk
%mem=8GB
%nprocshared=4
# B3LYP/6-311++G(d,p) empiricaldispersion=gd3bj scf=xqc pop=npa geom=check

CID_142881204_JID_60_Energie_anion

-1 2
