%chk=JID_1923.chk
%mem=8GB
%nprocshared=4
# opt freq B3LYP/6-31G(d) empiricaldispersion=gd3bj scf=xqc

CID_145690485_JID_1923_neutraal

0 1
C          0.93565        0.06545       -0.03970
C          0.48875        1.50975       -0.17421
C          0.94159        2.21923       -1.45885
C          2.46082        2.50660       -1.53509
C          2.83513        3.67059       -2.48280
C          2.74680        3.05261       -3.87440
C          3.18138        1.59928       -3.69613
C          3.24328        1.32851       -2.17717
C          4.71145        1.22225       -1.71550
N          4.82541        0.87581       -0.30273
C          2.02928        4.95443       -2.35168
H          0.68116       -0.51337       -0.93278
H          0.43839       -0.40142        0.81696
H          2.01209       -0.00418        0.13446
H         -0.60816        1.52615       -0.15115
H          0.82454        2.07766        0.70152
H          0.38745        3.16271       -1.47716
H          0.60514        1.64944       -2.33324
H          2.81706        2.74434       -0.52726
H          3.88376        3.93698       -2.29131
H          3.38394        3.57871       -4.59287
H          1.72077        3.08652       -4.25999
H          4.14129        1.41392       -4.19049
H          2.44701        0.93761       -4.17061
H          2.76475        0.36442       -1.97872
H          5.21316        0.43848       -2.29486
H          5.25550        2.15398       -1.90304
H          5.81107        0.79497       -0.05525
H          4.45313        1.62826        0.27339
H          2.00703        5.29442       -1.31149
H          2.48460        5.74770       -2.95480
H          0.99949        4.83905       -2.70289

--Link1--
%chk=JID_1923.chk
%mem=8GB
%nprocshared=4
# B3LYP/6-311++G(d,p) empiricaldispersion=gd3bj scf=xqc pop=npa geom=check

CID_145690485_JID_1923_Energie_neutraal

0 1

--Link1--
%chk=JID_1923.chk
%mem=8GB
%nprocshared=4
# B3LYP/6-311++G(d,p) empiricaldispersion=gd3bj scf=xqc pop=npa geom=check

CID_145690485_JID_1923_Energie_kation

1 2

--Link1--
%chk=JID_1923.chk
%mem=8GB
%nprocshared=4
# B3LYP/6-311++G(d,p) empiricaldispersion=gd3bj scf=xqc pop=npa geom=check

CID_145690485_JID_1923_Energie_anion

-1 2
