%chk=JID_4773.chk
%mem=8GB
%nprocshared=4
# opt freq B3LYP/6-31G(d) empiricaldispersion=gd3bj scf=xqc

CID_6434518_JID_4773_neutraal

0 1
C          1.03419        0.06766        0.06521
C          0.15684        1.31839       -0.01247
C          0.52417        2.11846       -1.26636
C         -1.35147        0.99462       -0.02892
C         -1.89380        0.41355        1.26505
C         -2.45177        1.22789        2.18520
C         -3.03619        0.83805        3.51624
C         -2.45256        1.60389        4.71753
C         -2.92378        3.06256        4.92315
C         -4.45020        3.18141        4.99891
C         -2.32171        3.59261        6.21383
C         -1.35943        4.51898        6.33620
O         -2.48091        3.86912        3.83467
C         -1.83440       -1.08313        1.40660
H          0.78470       -0.64404       -0.72886
H          0.92258       -0.43691        1.02840
H          2.09332        0.32869       -0.03660
H          0.37813        1.94671        0.86007
H          0.32806        1.54220       -2.17701
H         -0.05486        3.04653       -1.31999
H          1.58506        2.39055       -1.25853
H         -1.90283        1.91847       -0.25450
H         -1.58514        0.31929       -0.86235
H         -2.48678        2.29479        1.96684
H         -4.12367        0.95387        3.47392
H         -2.85728       -0.22588        3.70690
H         -2.70398        1.02730        5.61901
H         -1.35665        1.58585        4.63387
H         -4.87544        2.49815        5.74193
H         -4.75161        4.20226        5.26506
H         -4.91525        2.98028        4.02788
H         -2.71326        3.14997        7.12950
H         -0.99547        4.81462        7.31551
H         -0.89243        4.98243        5.47258
H         -2.75822        4.78108        4.02571
H         -1.79254       -1.57104        0.42717
H         -0.95018       -1.38239        1.97628
H         -2.72327       -1.48023        1.90650

--Link1--
%chk=JID_4773.chk
%mem=8GB
%nprocshared=4
# B3LYP/6-311++G(d,p) empiricaldispersion=gd3bj scf=xqc pop=npa geom=check

CID_6434518_JID_4773_Energie_neutraal

0 1

--Link1--
%chk=JID_4773.chk
%mem=8GB
%nprocshared=4
# B3LYP/6-311++G(d,p) empiricaldispersion=gd3bj scf=xqc pop=npa geom=check

CID_6434518_JID_4773_Energie_kation

1 2

--Link1--
%chk=JID_4773.chk
%mem=8GB
%nprocshared=4
# B3LYP/6-311++G(d,p) empiricaldispersion=gd3bj scf=xqc pop=npa geom=check

CID_6434518_JID_4773_Energie_anion

-1 2
