%chk=JID_6906.chk
%mem=8GB
%nprocshared=4
# opt freq B3LYP/6-31G(d) empiricaldispersion=gd3bj scf=xqc

CID_133719499_JID_6906_neutraal

0 1
C          0.95683        0.02424        0.08688
C         -0.05563        0.02194       -1.05108
C          0.48011       -0.67247       -2.31305
C          0.45184       -2.21438       -2.36487
C         -0.34816       -2.94443       -1.29747
C         -0.05008       -0.05361       -3.60961
O          0.74052        0.40383       -4.44252
N         -1.36671        0.01672       -3.92066
C         -2.54195       -0.54431       -3.27522
C         -3.74994        0.35589       -3.52362
C         -2.79694       -1.91823       -3.79649
C         -2.53898       -2.57218       -4.98495
C         -3.01886       -3.89552       -4.82841
C         -3.54693       -3.96888       -3.55865
O         -3.42767       -2.76718       -2.93289
C         -4.18171       -5.04704       -2.77631
H          1.27239       -0.98706        0.35577
H          0.52201        0.49125        0.97642
H          1.84907        0.59638       -0.18793
H         -0.97464       -0.44237       -0.68622
H         -0.30962        1.06455       -1.27987
H          1.55010       -0.40949       -2.35404
H          0.11228       -2.55325       -3.35063
H          1.48787       -2.57156       -2.28599
H         -0.34310       -4.02016       -1.50375
H          0.08761       -2.80521       -0.30482
H         -1.38886       -2.61919       -1.26593
H         -1.50318        0.39753       -4.84867
H         -2.36851       -0.59768       -2.20175
H         -4.64471       -0.03734       -3.02869
H         -3.56515        1.36553       -3.14020
H         -3.97257        0.44571       -4.59361
H         -2.04678       -2.15096       -5.85063
H         -2.97664       -4.69988       -5.54943
H         -3.69205       -5.15342       -1.80304
H         -5.23956       -4.82413       -2.60770
H         -4.11129       -6.00595       -3.29839

--Link1--
%chk=JID_6906.chk
%mem=8GB
%nprocshared=4
# B3LYP/6-311++G(d,p) empiricaldispersion=gd3bj scf=xqc pop=npa geom=check

CID_133719499_JID_6906_Energie_neutraal

0 1

--Link1--
%chk=JID_6906.chk
%mem=8GB
%nprocshared=4
# B3LYP/6-311++G(d,p) empiricaldispersion=gd3bj scf=xqc pop=npa geom=check

CID_133719499_JID_6906_Energie_kation

1 2

--Link1--
%chk=JID_6906.chk
%mem=8GB
%nprocshared=4
# B3LYP/6-311++G(d,p) empiricaldispersion=gd3bj scf=xqc pop=npa geom=check

CID_133719499_JID_6906_Energie_anion

-1 2
