%chk=JID_3447.chk
%mem=8GB
%nprocshared=4
# opt freq B3LYP/6-31G(d) empiricaldispersion=gd3bj scf=xqc

CID_15571009_JID_3447_neutraal

0 1
C          0.99391       -0.05473        0.08347
C          0.10217        0.85919        0.95288
C          0.06275        2.21500        0.17923
C         -1.36566        0.37822        0.95890
C          0.65518        0.95670        2.41364
C          0.84907       -0.06186        3.29201
C          1.37880        0.03859        4.71225
C          2.07216       -1.29418        4.95112
C          1.19221       -2.32205        4.26994
C          0.62556       -1.54450        3.11443
O          0.01817       -2.08336        2.20457
S          1.01153        2.59400        3.01983
C          2.76385        2.70973        2.57332
H          0.64300       -0.07379       -0.95555
H          1.02121       -1.09182        0.41331
H          2.02866        0.30856        0.07265
H         -0.33846        2.07663       -0.83306
H         -0.58497        2.95040        0.67019
H          1.06038        2.65043        0.06010
H         -1.50894       -0.59933        1.41641
H         -2.00294        1.08225        1.50793
H         -1.76013        0.30644       -0.06189
H          0.53960        0.16234        5.40737
H          2.09266        0.84821        4.87928
H          2.20261       -1.50703        6.01653
H          3.06795       -1.28645        4.48902
H          0.37337       -2.64754        4.91830
H          1.77208       -3.18009        3.92182
H          3.34817        1.94655        3.09397
H          2.90347        2.59072        1.49624
H          3.14197        3.69315        2.86503

--Link1--
%chk=JID_3447.chk
%mem=8GB
%nprocshared=4
# B3LYP/6-311++G(d,p) empiricaldispersion=gd3bj scf=xqc pop=npa geom=check

CID_15571009_JID_3447_Energie_neutraal

0 1

--Link1--
%chk=JID_3447.chk
%mem=8GB
%nprocshared=4
# B3LYP/6-311++G(d,p) empiricaldispersion=gd3bj scf=xqc pop=npa geom=check

CID_15571009_JID_3447_Energie_kation

1 2

--Link1--
%chk=JID_3447.chk
%mem=8GB
%nprocshared=4
# B3LYP/6-311++G(d,p) empiricaldispersion=gd3bj scf=xqc pop=npa geom=check

CID_15571009_JID_3447_Energie_anion

-1 2
