%chk=JID_6003.chk
%mem=8GB
%nprocshared=4
# opt freq B3LYP/6-31G(d) empiricaldispersion=gd3bj scf=xqc

CID_154510861_JID_6003_neutraal

0 1
C          0.94646       -0.02191        0.08157
C          0.28181        1.29680       -0.29273
C          0.81209        1.88147       -1.60872
C          0.40324        1.07086       -2.77822
C          0.07705        0.40903       -3.72622
C          0.36164        3.33208       -1.71896
O          1.05255        4.27169       -1.34345
O         -0.90442        3.42832       -2.20983
C         -1.52928        4.72822       -2.38615
C         -0.73614        5.58054       -3.43295
C         -0.77395        7.06433       -3.19369
C         -1.16804        7.58804       -2.02640
C         -1.56617        6.75609       -0.91868
C         -1.75421        5.42829       -1.04115
C         -2.21222        4.60676        0.13242
C         -2.91603        4.41143       -2.98758
H          0.73802       -0.80089       -0.65803
H          0.57062       -0.37048        1.04888
H          2.03171        0.09562        0.16331
H         -0.80441        1.14870       -0.34886
H          0.45481        2.01043        0.52297
H          1.90973        1.90271       -1.58401
H         -0.21442       -0.17824       -4.56675
H          0.31517        5.27784       -3.48691
H         -1.12888        5.38698       -4.43974
H         -0.44372        7.71601       -3.99697
H         -1.16669        8.66368       -1.87348
H         -1.72596        7.26030        0.03106
H         -1.46085        3.86092        0.40521
H         -2.38948        5.22581        1.01883
H         -3.14973        4.09055       -0.09275
H         -2.81229        3.87875       -3.94083
H         -3.49450        3.74233       -2.34043
H         -3.50462        5.31871       -3.16242

--Link1--
%chk=JID_6003.chk
%mem=8GB
%nprocshared=4
# B3LYP/6-311++G(d,p) empiricaldispersion=gd3bj scf=xqc pop=npa geom=check

CID_154510861_JID_6003_Energie_neutraal

0 1

--Link1--
%chk=JID_6003.chk
%mem=8GB
%nprocshared=4
# B3LYP/6-311++G(d,p) empiricaldispersion=gd3bj scf=xqc pop=npa geom=check

CID_154510861_JID_6003_Energie_kation

1 2

--Link1--
%chk=JID_6003.chk
%mem=8GB
%nprocshared=4
# B3LYP/6-311++G(d,p) empiricaldispersion=gd3bj scf=xqc pop=npa geom=check

CID_154510861_JID_6003_Energie_anion

-1 2
