%chk=JID_4678.chk
%mem=8GB
%nprocshared=4
# opt freq B3LYP/6-31G(d) empiricaldispersion=gd3bj scf=xqc

CID_87552702_JID_4678_neutraal

0 1
C          0.97509       -0.05708        0.07824
C          0.41898        1.09770        0.93806
C          1.25184        2.37453        0.64311
C          0.89197        3.03424       -0.67771
C         -0.59169        3.35564       -0.66273
C         -1.41715        2.09350       -0.46628
N         -1.02970        1.27057        0.68459
C         -1.99458        0.33457        1.03685
O         -3.15562        0.34990        0.63775
N         -1.60806       -0.66276        1.86088
O          0.63163        0.69671        2.31291
C          0.25793        1.64302        3.31248
C          1.49489        2.23274        3.95133
O          1.66579        3.43623        4.12344
H          0.82058        0.11394       -0.99156
H          0.50850       -1.01503        0.33001
H          2.04824       -0.19161        0.25742
H          1.10274        3.12805        1.42324
H          2.32404        2.14347        0.67393
H          1.13871        2.38313       -1.52320
H          1.47072        3.95637       -0.80182
H         -0.87819        3.84307       -1.60123
H         -0.80715        4.06438        0.14665
H         -1.33758        1.45687       -1.35709
H         -2.47168        2.38043       -0.37638
H         -0.75779       -0.57227        2.39900
H         -2.33486       -1.27741        2.19793
H         -0.40016        2.43441        2.94096
H         -0.27395        1.09972        4.09993
H          2.23753        1.49926        4.30848

--Link1--
%chk=JID_4678.chk
%mem=8GB
%nprocshared=4
# B3LYP/6-311++G(d,p) empiricaldispersion=gd3bj scf=xqc pop=npa geom=check

CID_87552702_JID_4678_Energie_neutraal

0 1

--Link1--
%chk=JID_4678.chk
%mem=8GB
%nprocshared=4
# B3LYP/6-311++G(d,p) empiricaldispersion=gd3bj scf=xqc pop=npa geom=check

CID_87552702_JID_4678_Energie_kation

1 2

--Link1--
%chk=JID_4678.chk
%mem=8GB
%nprocshared=4
# B3LYP/6-311++G(d,p) empiricaldispersion=gd3bj scf=xqc pop=npa geom=check

CID_87552702_JID_4678_Energie_anion

-1 2
