%chk=JID_6532.chk
%mem=8GB
%nprocshared=4
# opt freq B3LYP/6-31G(d) empiricaldispersion=gd3bj scf=xqc

CID_61325662_JID_6532_neutraal

0 1
C         -0.02900        0.88300        0.00000
C         -0.60008       -0.50702       -0.04322
C          0.83522       -0.29625        0.37825
C          1.97354       -0.72933       -0.51317
C          3.27031       -0.01660       -0.22961
N          3.76592        0.93624       -1.03216
O          4.95518        1.30076       -0.40011
C          5.05896        0.52134        0.71711
N          4.04840       -0.30591        0.87191
C          6.24751        0.74655        1.57759
C          7.47041        0.04456        1.06118
C          8.38156        0.48991        0.12207
C          9.42208       -0.45443       -0.11336
C          9.27357       -1.58729        0.65427
S          7.88702       -1.51077        1.65055
N          2.14213       -2.17926       -0.29833
H         -0.35923        1.54323        0.79409
H          0.15576        1.38470       -0.94337
H         -1.31160       -0.79363        0.72269
H         -0.79118       -0.95442       -1.01226
H          1.06781       -0.41909        1.43164
H          1.70306       -0.57837       -1.56566
H          6.44991        1.82320        1.64079
H          6.01916        0.42198        2.60018
H          8.30564        1.44799       -0.37946
H         10.23786       -0.31068       -0.81141
H          9.91248       -2.45953        0.67862
H          2.88694       -2.49993       -0.91620
H          2.52207       -2.29778        0.64335

--Link1--
%chk=JID_6532.chk
%mem=8GB
%nprocshared=4
# B3LYP/6-311++G(d,p) empiricaldispersion=gd3bj scf=xqc pop=npa geom=check

CID_61325662_JID_6532_Energie_neutraal

0 1

--Link1--
%chk=JID_6532.chk
%mem=8GB
%nprocshared=4
# B3LYP/6-311++G(d,p) empiricaldispersion=gd3bj scf=xqc pop=npa geom=check

CID_61325662_JID_6532_Energie_kation

1 2

--Link1--
%chk=JID_6532.chk
%mem=8GB
%nprocshared=4
# B3LYP/6-311++G(d,p) empiricaldispersion=gd3bj scf=xqc pop=npa geom=check

CID_61325662_JID_6532_Energie_anion

-1 2
