%chk=JID_9417.chk
%mem=8GB
%nprocshared=4
# opt freq B3LYP/6-31G(d) empiricaldispersion=gd3bj scf=xqc

CID_127914868_JID_9417_neutraal

0 1
C          1.54700       -0.56900        0.23900
C          0.93513        0.82185        0.06266
C         -0.53481        0.92513        0.47378
C         -1.47725        0.30779       -0.51448
C         -1.44765       -0.98291       -0.88586
C         -0.47633       -2.01231       -0.39407
C          0.98176       -1.65357       -0.67666
C         -2.36890       -1.39567       -1.97858
O         -2.09800       -1.06988       -3.13202
N         -3.48399       -2.14621       -1.62458
C         -4.20406       -2.80718       -2.70871
C         -5.70249       -2.87295       -2.45248
C         -6.01117       -3.48584       -1.09199
C         -5.23227       -2.83442        0.05208
C         -3.75190       -2.63305       -0.26584
S         -5.98781       -1.32425        0.67782
O         -7.40981       -1.52631        0.82773
O         -5.18908       -0.81504        1.77058
N         -5.82518       -0.21179       -0.54717
H          1.44818       -0.88253        1.28568
H          2.62384       -0.49053        0.04287
H          1.50979        1.51894        0.68588
H          1.06515        1.15560       -0.97458
H         -0.79056        1.98919        0.55663
H         -0.69599        0.49556        1.46963
H         -2.19452        0.98143       -0.98080
H         -0.68661       -2.97257       -0.88201
H         -0.62888       -2.18160        0.67921
H          1.10761       -1.36098       -1.72651
H          1.58535       -2.55859       -0.53203
H         -3.78870       -3.81868       -2.79817
H         -4.02522       -2.30258       -3.66399
H         -6.18050       -3.46849       -3.23896
H         -6.13430       -1.86957       -2.51955
H         -7.09075       -3.45425       -0.91021
H         -5.73669       -4.54849       -1.13053
H         -5.29894       -3.50346        0.92159
H         -3.28176       -1.98436        0.47734
H         -3.24242       -3.60321       -0.19818
H         -6.73654        0.12047       -0.86614
H         -5.17966        0.53612       -0.29041

--Link1--
%chk=JID_9417.chk
%mem=8GB
%nprocshared=4
# B3LYP/6-311++G(d,p) empiricaldispersion=gd3bj scf=xqc pop=npa geom=check

CID_127914868_JID_9417_Energie_neutraal

0 1

--Link1--
%chk=JID_9417.chk
%mem=8GB
%nprocshared=4
# B3LYP/6-311++G(d,p) empiricaldispersion=gd3bj scf=xqc pop=npa geom=check

CID_127914868_JID_9417_Energie_kation

1 2

--Link1--
%chk=JID_9417.chk
%mem=8GB
%nprocshared=4
# B3LYP/6-311++G(d,p) empiricaldispersion=gd3bj scf=xqc pop=npa geom=check

CID_127914868_JID_9417_Energie_anion

-1 2
