%chk=JID_6592.chk
%mem=8GB
%nprocshared=4
# opt freq B3LYP/6-31G(d) empiricaldispersion=gd3bj scf=xqc

CID_111086111_JID_6592_neutraal

0 1
C          1.02467        0.07335        0.06333
C          0.36900       -0.43495       -1.20855
N          1.31657       -1.20484       -2.01915
C          1.03462       -2.65525       -1.99668
C          0.01370       -3.03793       -3.05985
C          2.14280       -0.62824       -2.96779
N          2.48820        0.56100       -3.28185
C          2.14189        1.81022       -2.65359
C          2.01200        2.89011       -3.72966
C          0.73071        2.80205       -4.57118
C         -0.57536        2.92786       -3.78911
C         -0.60552        4.15984       -2.91887
O         -0.61885        5.30676       -3.34412
O         -0.56811        3.80954       -1.60212
C         -0.49695        4.91879       -0.70569
N          2.79203       -1.54062       -3.74387
H          1.31894       -0.76500        0.70425
H          0.32586        0.69955        0.62656
H          1.92648        0.65787       -0.13605
H         -0.48567       -1.05736       -0.91191
H         -0.08554        0.36560       -1.79346
H          1.95029       -3.24359       -2.12103
H          0.65174       -2.94661       -1.01008
H          0.37729       -2.81565       -4.06781
H         -0.20065       -4.10998       -3.00837
H         -0.92731       -2.49631       -2.91994
H          1.24621        1.79622       -2.04449
H          2.96628        2.09438       -1.98912
H          2.06053        3.87430       -3.24882
H          2.87445        2.83839       -4.40655
H          0.76704        3.60060       -5.32289
H          0.71915        1.85578       -5.12540
H         -1.42626        2.98792       -4.47756
H         -0.75197        2.03707       -3.17916
H         -1.35144        5.58797       -0.84531
H         -0.52527        4.53007        0.31619
H          0.44606        5.45680       -0.84455
H          3.36068       -2.15893       -3.18161
H          3.40879       -1.02014       -4.36160

--Link1--
%chk=JID_6592.chk
%mem=8GB
%nprocshared=4
# B3LYP/6-311++G(d,p) empiricaldispersion=gd3bj scf=xqc pop=npa geom=check

CID_111086111_JID_6592_Energie_neutraal

0 1

--Link1--
%chk=JID_6592.chk
%mem=8GB
%nprocshared=4
# B3LYP/6-311++G(d,p) empiricaldispersion=gd3bj scf=xqc pop=npa geom=check

CID_111086111_JID_6592_Energie_kation

1 2

--Link1--
%chk=JID_6592.chk
%mem=8GB
%nprocshared=4
# B3LYP/6-311++G(d,p) empiricaldispersion=gd3bj scf=xqc pop=npa geom=check

CID_111086111_JID_6592_Energie_anion

-1 2
