%chk=JID_6664.chk
%mem=8GB
%nprocshared=4
# opt freq B3LYP/6-31G(d) empiricaldispersion=gd3bj scf=xqc

CID_149977280_JID_6664_neutraal

0 1
C          0.93637        0.02404        0.07330
C         -0.45247        0.51161       -0.33186
C         -0.38630        1.40631       -1.55482
C         -0.05361        2.76109       -1.34674
C          0.05429        3.65284       -2.41451
C         -0.16537        3.21026       -3.71332
C         -0.49234        1.87535       -3.94372
C         -0.59957        0.97069       -2.87629
C         -0.96875       -0.42876       -3.19658
N         -1.23541       -0.83572       -4.40478
C         -1.58029       -2.26789       -4.27435
C         -1.93337       -2.46959       -2.81146
C         -1.01459       -1.47816       -2.14061
S         -1.59301       -0.83681       -0.61956
O         -2.92138       -0.28360       -0.80663
O         -1.36779       -1.85201        0.39409
H          1.41388       -0.55835       -0.72157
H          0.88836       -0.60826        0.96575
H          1.59761        0.86700        0.30273
H         -0.89481        1.06962        0.50361
H          0.12264        3.13698       -0.33921
H          0.30646        4.69481       -2.23112
H         -0.08822        3.90231       -4.54836
H         -0.66923        1.54497       -4.96636
H         -0.71919       -2.87734       -4.57082
H         -2.42517       -2.51841       -4.92291
H         -2.98983       -2.22699       -2.64502
H         -1.77064       -3.49822       -2.47669
H         -0.01446       -1.90031       -2.00205

--Link1--
%chk=JID_6664.chk
%mem=8GB
%nprocshared=4
# B3LYP/6-311++G(d,p) empiricaldispersion=gd3bj scf=xqc pop=npa geom=check

CID_149977280_JID_6664_Energie_neutraal

0 1

--Link1--
%chk=JID_6664.chk
%mem=8GB
%nprocshared=4
# B3LYP/6-311++G(d,p) empiricaldispersion=gd3bj scf=xqc pop=npa geom=check

CID_149977280_JID_6664_Energie_kation

1 2

--Link1--
%chk=JID_6664.chk
%mem=8GB
%nprocshared=4
# B3LYP/6-311++G(d,p) empiricaldispersion=gd3bj scf=xqc pop=npa geom=check

CID_149977280_JID_6664_Energie_anion

-1 2
