%chk=JID_3517.chk
%mem=8GB
%nprocshared=4
# opt freq B3LYP/6-31G(d) empiricaldispersion=gd3bj scf=xqc

CID_126993663_JID_3517_neutraal

0 1
C         -2.85800        0.01300       -0.06300
C         -1.40371        0.00769       -0.42686
C         -0.57180        1.03736       -0.00357
C          0.79121        0.99607       -0.31750
C          1.26895       -0.02963       -1.14183
C          0.35769       -1.02337       -1.49621
N         -0.94873       -1.03473       -1.15062
C          2.64821       -0.10121       -1.72515
N          1.56464        2.06169        0.18341
C          2.87972        2.14006        0.49689
O          3.47046        3.21712        0.42935
N          3.53211        1.06016        0.99361
C          2.93650        0.01798        1.80259
H         -3.38121       -0.82393       -0.53665
H         -2.97506       -0.07914        1.02116
H         -3.33025        0.94157       -0.39862
H         -0.97956        1.84131        0.60137
H          0.65850       -1.86237       -2.12001
H          3.31104       -0.69903       -1.09497
H          2.62027       -0.56848       -2.71673
H          3.07610        0.89358       -1.87787
H          1.10700        2.96321        0.23710
H          4.49558        1.28790        1.20448
H          2.85642       -0.89650        1.21227
H          3.60330       -0.17210        2.64839
H          1.95814        0.31745        2.18532

--Link1--
%chk=JID_3517.chk
%mem=8GB
%nprocshared=4
# B3LYP/6-311++G(d,p) empiricaldispersion=gd3bj scf=xqc pop=npa geom=check

CID_126993663_JID_3517_Energie_neutraal

0 1

--Link1--
%chk=JID_3517.chk
%mem=8GB
%nprocshared=4
# B3LYP/6-311++G(d,p) empiricaldispersion=gd3bj scf=xqc pop=npa geom=check

CID_126993663_JID_3517_Energie_kation

1 2

--Link1--
%chk=JID_3517.chk
%mem=8GB
%nprocshared=4
# B3LYP/6-311++G(d,p) empiricaldispersion=gd3bj scf=xqc pop=npa geom=check

CID_126993663_JID_3517_Energie_anion

-1 2
