%chk=JID_7446.chk
%mem=8GB
%nprocshared=4
# opt freq B3LYP/6-31G(d) empiricaldispersion=gd3bj scf=xqc

CID_142689431_JID_7446_neutraal

0 1
C          1.05840        0.07096        0.03942
C          0.74717        1.00653       -1.08871
C          1.15023        2.28460       -1.21555
C          0.68307        3.22209       -2.31714
C         -0.68554        2.81847       -2.84304
C         -0.65086        1.35782       -3.26640
C         -0.15282        0.44830       -2.15793
O         -0.43945       -0.74931       -2.16246
C          0.71528        4.62853       -1.69860
C          1.74168        4.45702       -0.62075
C          1.97994        3.10944       -0.33060
C          2.92353        2.76760        0.62514
C          3.59050        3.78448        1.32432
C          3.32102        5.13440        1.05804
C          2.38988        5.47138        0.07232
O          3.90420        6.20566        1.67841
C          4.81553        5.92107        2.73210
H          0.22111       -0.60651        0.23965
H          1.23305        0.60052        0.97938
H          1.93863       -0.53385       -0.19896
H          1.41877        3.17687       -3.13424
H         -1.45013        2.95587       -2.06709
H         -0.97018        3.45027       -3.69194
H         -1.66269        1.04166       -3.54298
H          0.00305        1.22092       -4.13492
H         -0.24572        4.91463       -1.25721
H          1.01792        5.37696       -2.43759
H          3.17261        1.73282        0.83228
H          4.32262        3.48822        2.06859
H          2.18217        6.51446       -0.14692
H          4.32484        5.37146        3.54230
H          5.69147        5.37981        2.35978
H          5.16288        6.87508        3.14032

--Link1--
%chk=JID_7446.chk
%mem=8GB
%nprocshared=4
# B3LYP/6-311++G(d,p) empiricaldispersion=gd3bj scf=xqc pop=npa geom=check

CID_142689431_JID_7446_Energie_neutraal

0 1

--Link1--
%chk=JID_7446.chk
%mem=8GB
%nprocshared=4
# B3LYP/6-311++G(d,p) empiricaldispersion=gd3bj scf=xqc pop=npa geom=check

CID_142689431_JID_7446_Energie_kation

1 2

--Link1--
%chk=JID_7446.chk
%mem=8GB
%nprocshared=4
# B3LYP/6-311++G(d,p) empiricaldispersion=gd3bj scf=xqc pop=npa geom=check

CID_142689431_JID_7446_Energie_anion

-1 2
