%chk=JID_10331.chk
%mem=8GB
%nprocshared=4
# opt freq B3LYP/6-31G(d) empiricaldispersion=gd3bj scf=xqc

CID_102950281_JID_10331_neutraal

0 1
C          1.06767       -0.05736       -0.04616
O          2.20036        0.23650       -0.85771
C          1.96119        0.05962       -2.20756
N          0.78636       -0.44223       -2.62102
C          0.66650       -0.59135       -3.94498
N          1.60015       -0.29977       -4.86128
C          2.76638        0.21914       -4.40243
C          2.98898        0.41063       -3.05189
C          3.84820        0.56836       -5.41326
C          4.53263       -0.65374       -5.99609
N          4.19831       -1.01774       -7.27377
C          4.83052       -2.11872       -7.74694
C          5.76455       -2.82455       -7.00189
N          6.11212       -2.46367       -5.74671
C          5.47902       -1.37090       -5.25756
O          5.79655       -0.91973       -3.99219
C          6.75420       -1.73533       -3.32314
O          6.34619       -3.92530       -7.59513
C          7.29892       -4.57302       -6.75797
O          3.25883        1.35675       -6.46523
H          1.35264        0.11223        0.99672
H          0.76803       -1.10680       -0.14159
H          0.23303        0.61372       -0.27697
H         -0.27351       -0.98767       -4.31340
H          3.91686        0.80982       -2.66447
H          4.59990        1.22064       -4.95381
H          4.56726       -2.42503       -8.75305
H          7.71235       -1.73835       -3.85431
H          6.92486       -1.30227       -2.33275
H          6.37784       -2.75424       -3.18110
H          8.13455       -3.90612       -6.51831
H          6.82946       -4.95864       -5.84624
H          7.70287       -5.42661       -7.31084
H          3.17355        0.73099       -7.21348

--Link1--
%chk=JID_10331.chk
%mem=8GB
%nprocshared=4
# B3LYP/6-311++G(d,p) empiricaldispersion=gd3bj scf=xqc pop=npa geom=check

CID_102950281_JID_10331_Energie_neutraal

0 1

--Link1--
%chk=JID_10331.chk
%mem=8GB
%nprocshared=4
# B3LYP/6-311++G(d,p) empiricaldispersion=gd3bj scf=xqc pop=npa geom=check

CID_102950281_JID_10331_Energie_kation

1 2

--Link1--
%chk=JID_10331.chk
%mem=8GB
%nprocshared=4
# B3LYP/6-311++G(d,p) empiricaldispersion=gd3bj scf=xqc pop=npa geom=check

CID_102950281_JID_10331_Energie_anion

-1 2
