%chk=JID_2166.chk
%mem=8GB
%nprocshared=4
# opt freq B3LYP/6-31G(d) empiricaldispersion=gd3bj scf=xqc

CID_123615127_JID_2166_neutraal

0 1
C          0.93147       -0.04619        0.05630
C          0.33879       -0.68678        1.30395
C          0.51302        0.19031        2.54247
O         -0.34750        1.33228        2.45929
C          0.31674        2.51797        2.30603
C         -0.05374        3.28739        1.20098
C          0.57561        4.50794        0.94678
C          1.56155        4.97995        1.81412
C          1.90288        4.24265        2.94831
C          1.26893        3.02474        3.19271
N          1.58996        2.35830        4.36774
C          1.85026        1.84223        5.32104
H          1.97189        0.25227        0.21877
H          0.35952        0.83161       -0.25344
H          0.91061       -0.75880       -0.77473
H         -0.72474       -0.88546        1.12877
H          0.83526       -1.64847        1.47575
H          0.20277       -0.37684        3.42719
H          1.57411        0.43726        2.66350
H         -0.82512        2.92522        0.52614
H          0.29405        5.08933        0.07238
H          2.05149        5.92938        1.61446
H          2.64924        4.61913        3.64109
H          2.09501        1.35010        6.23354

--Link1--
%chk=JID_2166.chk
%mem=8GB
%nprocshared=4
# B3LYP/6-311++G(d,p) empiricaldispersion=gd3bj scf=xqc pop=npa geom=check

CID_123615127_JID_2166_Energie_neutraal

0 1

--Link1--
%chk=JID_2166.chk
%mem=8GB
%nprocshared=4
# B3LYP/6-311++G(d,p) empiricaldispersion=gd3bj scf=xqc pop=npa geom=check

CID_123615127_JID_2166_Energie_kation

1 2

--Link1--
%chk=JID_2166.chk
%mem=8GB
%nprocshared=4
# B3LYP/6-311++G(d,p) empiricaldispersion=gd3bj scf=xqc pop=npa geom=check

CID_123615127_JID_2166_Energie_anion

-1 2
