%chk=JID_8530.chk
%mem=8GB
%nprocshared=4
# opt freq B3LYP/6-31G(d) empiricaldispersion=gd3bj scf=xqc

CID_119551588_JID_8530_neutraal

0 1
C          1.07751        0.05343        0.03373
N          0.42495        0.52307        1.25355
C         -0.23949        1.84709        1.22879
C         -1.12147        2.12261        0.00826
C         -0.32038        3.11342       -0.81470
N          0.34343        3.95339        0.18717
C          0.76768        3.01668        1.23990
C          0.87865       -0.06220        2.43916
O          1.72822       -0.94955        2.48482
C          0.29823        0.43436        3.71472
C          1.09573        1.11033        4.56256
N          0.56085        1.56542        5.76282
C          1.15593        2.28304        6.76810
C          0.17160        2.48384        7.70812
N         -1.01200        1.91171        7.31542
C         -0.76061        1.35686        6.14869
C         -1.58849        0.60907        5.26314
C         -1.08393        0.15937        4.09712
H          1.94318        0.68687       -0.17856
H          0.38324        0.07857       -0.80775
H          1.42276       -0.97936        0.14134
H         -0.88474        1.93457        2.10703
H         -2.04927        2.60718        0.34150
H         -1.41416        1.23284       -0.55469
H          0.42957        2.60584       -1.43142
H         -0.95686        3.70834       -1.47648
H         -0.34584        4.59687        0.58012
H          0.78144        3.51876        2.21336
H          1.79091        2.68386        1.03529
H          2.13913        1.32290        4.36443
H          2.19369        2.58007        6.73010
H          0.25276        3.01149        8.65001
H         -2.61183        0.40751        5.55897
H         -1.69304       -0.42898        3.41700

--Link1--
%chk=JID_8530.chk
%mem=8GB
%nprocshared=4
# B3LYP/6-311++G(d,p) empiricaldispersion=gd3bj scf=xqc pop=npa geom=check

CID_119551588_JID_8530_Energie_neutraal

0 1

--Link1--
%chk=JID_8530.chk
%mem=8GB
%nprocshared=4
# B3LYP/6-311++G(d,p) empiricaldispersion=gd3bj scf=xqc pop=npa geom=check

CID_119551588_JID_8530_Energie_kation

1 2

--Link1--
%chk=JID_8530.chk
%mem=8GB
%nprocshared=4
# B3LYP/6-311++G(d,p) empiricaldispersion=gd3bj scf=xqc pop=npa geom=check

CID_119551588_JID_8530_Energie_anion

-1 2
