%chk=JID_8248.chk
%mem=8GB
%nprocshared=4
# opt freq B3LYP/6-31G(d) empiricaldispersion=gd3bj scf=xqc

CID_63363559_JID_8248_neutraal

0 1
C          0.78100       -1.26600       -0.21900
C          1.30524        0.15339       -0.03301
C          0.20598        1.19383       -0.31390
C         -1.06011        0.82410        0.48287
O         -1.47821       -0.51983        0.22469
C         -0.48774       -1.47622        0.59220
N          0.77402        2.51520       -0.03355
C         -0.06119        3.66127       -0.38844
C         -1.00468        4.23603        0.69035
C         -0.39625        4.49829        2.07732
O          0.53196        5.58610        2.08903
C          1.91068        5.27179        1.86554
C          2.52561        4.32152        2.90056
C          4.04327        4.41423        2.95043
C          4.42013        3.05562        3.48250
C          3.42613        2.16199        2.77642
O          2.23776        2.94174        2.56796
O         -1.54878        5.47272        0.19777
H          0.56207       -1.42332       -1.28220
H          1.54481       -1.99378        0.07430
H          1.67070        0.25908        0.99713
H          2.16484        0.31572       -0.69496
H         -0.02936        1.12403       -1.38445
H         -0.90858        0.95227        1.56160
H         -1.89438        1.46434        0.18464
H         -0.89584       -2.47239        0.39416
H         -0.29230       -1.40569        1.66860
H          1.12758        2.57700        0.92663
H          0.60811        4.46523       -0.71753
H         -0.64788        3.44261       -1.29103
H         -1.85275        3.55764        0.81846
H         -1.21501        4.83250        2.72655
H         -0.00584        3.59270        2.54205
H          2.04486        4.89025        0.85200
H          2.43180        6.23437        1.91511
H          2.09411        4.50462        3.89198
H          4.46097        4.54370        1.94432
H          4.39650        5.23808        3.57675
H          5.45880        2.77778        3.28576
H          4.25378        3.02038        4.56559
H          3.79721        1.85458        1.79295
H          3.18124        1.26548        3.35264
H         -0.91550        6.16607        0.47102

--Link1--
%chk=JID_8248.chk
%mem=8GB
%nprocshared=4
# B3LYP/6-311++G(d,p) empiricaldispersion=gd3bj scf=xqc pop=npa geom=check

CID_63363559_JID_8248_Energie_neutraal

0 1

--Link1--
%chk=JID_8248.chk
%mem=8GB
%nprocshared=4
# B3LYP/6-311++G(d,p) empiricaldispersion=gd3bj scf=xqc pop=npa geom=check

CID_63363559_JID_8248_Energie_kation

1 2

--Link1--
%chk=JID_8248.chk
%mem=8GB
%nprocshared=4
# B3LYP/6-311++G(d,p) empiricaldispersion=gd3bj scf=xqc pop=npa geom=check

CID_63363559_JID_8248_Energie_anion

-1 2
