%chk=JID_10008.chk
%mem=8GB
%nprocshared=4
# opt freq B3LYP/6-31G(d) empiricaldispersion=gd3bj scf=xqc

CID_82061158_JID_10008_neutraal

0 1
C          0.93527        0.07457       -0.01579
C          0.33355       -0.71384       -1.14436
C         -1.05618       -0.78558       -1.33497
C         -1.50599       -1.60666       -2.39219
N         -0.70359       -2.27931       -3.25186
C          0.62035       -2.15064       -3.05210
C          1.17786       -1.39377       -2.03330
O         -2.86325       -1.78373       -2.59944
C         -3.52872       -0.72493       -3.17945
C         -2.96980        0.11141       -4.14701
C         -3.70456        1.19023       -4.64305
C         -5.00525        1.44007       -4.18432
C         -5.57398        0.56357       -3.25002
C         -4.84154       -0.51691       -2.75541
C         -5.78302        2.63201       -4.69419
C         -5.61295        3.95983       -3.90120
C         -4.15434        4.44949       -3.91664
C         -6.48788        5.03219       -4.58199
C         -6.07907        3.81342       -2.44227
N         -1.93930       -0.25045       -0.37271
H          0.57436       -0.29999        0.94753
H          0.68042        1.13457       -0.11545
H          2.02782       -0.00282       -0.00888
H          1.24910       -2.69736       -3.74929
H          2.25733       -1.35339       -1.92676
H         -1.96638       -0.06482       -4.52553
H         -3.25019        1.83912       -5.38865
H         -6.59032        0.72117       -2.89603
H         -5.28966       -1.18735       -2.02658
H         -5.50650        2.79665       -5.74519
H         -6.84732        2.35909       -4.72401
H         -3.77366        4.52715       -4.94107
H         -4.06683        5.44004       -3.45523
H         -3.49411        3.77750       -3.35861
H         -7.54401        4.73989       -4.58143
H         -6.41014        5.99598       -4.06598
H         -6.18386        5.18797       -5.62325
H         -7.10435        3.43067       -2.39086
H         -5.43385        3.13364       -1.87609
H         -6.05993        4.77935       -1.92425
H         -2.88379       -0.13799       -0.73352
H         -1.60192        0.59743        0.06877

--Link1--
%chk=JID_10008.chk
%mem=8GB
%nprocshared=4
# B3LYP/6-311++G(d,p) empiricaldispersion=gd3bj scf=xqc pop=npa geom=check

CID_82061158_JID_10008_Energie_neutraal

0 1

--Link1--
%chk=JID_10008.chk
%mem=8GB
%nprocshared=4
# B3LYP/6-311++G(d,p) empiricaldispersion=gd3bj scf=xqc pop=npa geom=check

CID_82061158_JID_10008_Energie_kation

1 2

--Link1--
%chk=JID_10008.chk
%mem=8GB
%nprocshared=4
# B3LYP/6-311++G(d,p) empiricaldispersion=gd3bj scf=xqc pop=npa geom=check

CID_82061158_JID_10008_Energie_anion

-1 2
