%chk=JID_3497.chk
%mem=8GB
%nprocshared=4
# opt freq B3LYP/6-31G(d) empiricaldispersion=gd3bj scf=xqc

CID_130144194_JID_3497_neutraal

0 1
C          1.00018       -0.08302        0.05575
C          0.02868        0.69942       -0.83316
C         -1.06298       -0.21174       -1.34438
C         -1.33157       -0.41121       -2.64305
C         -0.55484        0.22610       -3.75913
C          0.83793        0.75736       -3.32337
C          0.67881        1.53188       -1.97625
C          1.96897        2.25537       -1.55927
C          2.47140        3.18811       -2.66083
C          2.64165        2.46042       -3.99198
C          1.36296        1.73571       -4.40793
O          3.71996        3.73820       -2.25379
C          1.81151       -0.44092       -3.22774
H          1.60470       -0.79910       -0.50475
H          0.45632       -0.64611        0.82355
H          1.68057        0.59184        0.58506
H         -0.46498        1.42341       -0.16851
H         -1.67896       -0.70929       -0.59757
H         -2.15967       -1.05771       -2.92389
H         -1.16909        1.04137       -4.16232
H         -0.43539       -0.50260       -4.57079
H         -0.04910        2.33470       -2.18465
H          2.76110        1.54337       -1.29905
H          1.79342        2.84340       -0.64916
H          1.76620        4.01938       -2.78077
H          2.92538        3.18150       -4.76861
H          3.48188        1.75805       -3.93125
H          0.59600        2.49202       -4.62255
H          1.53807        1.20266       -5.35079
H          4.02095        4.33604       -2.95924
H          2.77482       -0.16394       -2.79095
H          1.40115       -1.26270       -2.63435
H          2.01474       -0.85349       -4.22337

--Link1--
%chk=JID_3497.chk
%mem=8GB
%nprocshared=4
# B3LYP/6-311++G(d,p) empiricaldispersion=gd3bj scf=xqc pop=npa geom=check

CID_130144194_JID_3497_Energie_neutraal

0 1

--Link1--
%chk=JID_3497.chk
%mem=8GB
%nprocshared=4
# B3LYP/6-311++G(d,p) empiricaldispersion=gd3bj scf=xqc pop=npa geom=check

CID_130144194_JID_3497_Energie_kation

1 2

--Link1--
%chk=JID_3497.chk
%mem=8GB
%nprocshared=4
# B3LYP/6-311++G(d,p) empiricaldispersion=gd3bj scf=xqc pop=npa geom=check

CID_130144194_JID_3497_Energie_anion

-1 2
