%chk=JID_6067.chk
%mem=8GB
%nprocshared=4
# opt freq B3LYP/6-31G(d) empiricaldispersion=gd3bj scf=xqc

CID_76945880_JID_6067_neutraal

0 1
C          1.02944       -0.05990        0.07447
C          0.04473        0.42735       -1.00882
C          0.76484        0.32285       -2.37477
C         -1.15402       -0.54245       -1.04340
C         -0.45581        1.90033       -0.80544
C         -1.32531        2.11753        0.45772
O         -0.96969        1.70605        1.56559
N         -2.45194        2.88141        0.42001
C         -3.30954        3.43756       -0.64586
C         -2.59461        4.39080       -1.63366
C         -2.88476        3.85844       -3.03772
C         -4.12249        2.99282       -2.88200
C         -3.91938        2.32993       -1.52767
C         -4.44156        4.24299        0.06666
O         -5.05965        3.46812        1.09615
N          0.67653        2.85764       -0.73764
H          1.37696       -1.07638       -0.14752
H          0.56947       -0.09669        1.06537
H          1.92069        0.57265        0.13418
H          1.06168       -0.71074       -2.58781
H          0.11302        0.65301       -3.19165
H          1.67317        0.93448       -2.40144
H         -1.71761       -0.52582       -0.10492
H         -1.84125       -0.29376       -1.85842
H         -0.82188       -1.57480       -1.20463
H         -1.04483        2.16307       -1.68358
H         -2.89283        2.89443        1.33851
H         -2.99124        5.41090       -1.55578
H         -1.52016        4.47651       -1.46428
H         -2.04474        3.25227       -3.39452
H         -3.03634        4.66656       -3.75980
H         -4.22015        2.26192       -3.68993
H         -5.02489        3.61467       -2.87487
H         -3.23337        1.48684       -1.64142
H         -4.85537        1.92059       -1.13662
H         -4.02011        5.12750        0.55803
H         -5.21460        4.58352       -0.63036
H         -5.61523        2.79109        0.67384
H          0.30630        3.79292       -0.57043
H          1.20834        2.64490        0.11032

--Link1--
%chk=JID_6067.chk
%mem=8GB
%nprocshared=4
# B3LYP/6-311++G(d,p) empiricaldispersion=gd3bj scf=xqc pop=npa geom=check

CID_76945880_JID_6067_Energie_neutraal

0 1

--Link1--
%chk=JID_6067.chk
%mem=8GB
%nprocshared=4
# B3LYP/6-311++G(d,p) empiricaldispersion=gd3bj scf=xqc pop=npa geom=check

CID_76945880_JID_6067_Energie_kation

1 2

--Link1--
%chk=JID_6067.chk
%mem=8GB
%nprocshared=4
# B3LYP/6-311++G(d,p) empiricaldispersion=gd3bj scf=xqc pop=npa geom=check

CID_76945880_JID_6067_Energie_anion

-1 2
