%chk=JID_8844.chk
%mem=8GB
%nprocshared=4
# opt freq B3LYP/6-31G(d) empiricaldispersion=gd3bj scf=xqc

CID_113619125_JID_8844_neutraal

0 1
C          0.94519       -0.06121       -0.05700
C          0.61932       -1.36910        0.67772
C         -0.87938       -1.43761        1.02455
N         -1.71096       -1.60829       -0.16764
C         -1.38302       -2.84935       -0.86671
C          0.08286       -2.88284       -1.29437
C          1.02550       -2.64783       -0.10178
C          2.48729       -2.66550       -0.57349
N          3.42653       -2.55684        0.52319
C          3.82784       -3.57529        1.34466
O          4.57722       -3.35841        2.28971
O          3.29673       -4.80239        0.97908
C          3.67187       -5.86885        1.80119
C          4.52593       -6.83510        1.27361
C          4.86761       -7.94019        2.05203
C          4.34311       -8.07658        3.33950
C          3.47209       -7.11123        3.85053
C          3.12574       -6.00413        3.07676
H          0.58252        0.79999        0.51504
H          0.48825       -0.01709       -1.05002
H          2.02531        0.06796       -0.17462
H          1.17293       -1.35165        1.62586
H         -1.06362       -2.25998        1.72761
H         -1.18252       -0.51734        1.53713
H         -2.69249       -1.62984        0.10950
H         -2.01736       -2.93383       -1.75585
H         -1.61102       -3.71262       -0.22944
H          0.25719       -2.12798       -2.07128
H          0.29874       -3.85636       -1.75140
H          0.88816       -3.49369        0.58776
H          2.69357       -3.59846       -1.11096
H          2.69736       -1.84497       -1.26690
H          3.77132       -1.64639        0.79745
H          4.92494       -6.72744        0.26994
H          5.54151       -8.69582        1.65713
H          4.61299       -8.93766        3.94591
H          3.06520       -7.22243        4.85209
H          2.44689       -5.25391        3.46960

--Link1--
%chk=JID_8844.chk
%mem=8GB
%nprocshared=4
# B3LYP/6-311++G(d,p) empiricaldispersion=gd3bj scf=xqc pop=npa geom=check

CID_113619125_JID_8844_Energie_neutraal

0 1

--Link1--
%chk=JID_8844.chk
%mem=8GB
%nprocshared=4
# B3LYP/6-311++G(d,p) empiricaldispersion=gd3bj scf=xqc pop=npa geom=check

CID_113619125_JID_8844_Energie_kation

1 2

--Link1--
%chk=JID_8844.chk
%mem=8GB
%nprocshared=4
# B3LYP/6-311++G(d,p) empiricaldispersion=gd3bj scf=xqc pop=npa geom=check

CID_113619125_JID_8844_Energie_anion

-1 2
