%chk=JID_3938.chk
%mem=8GB
%nprocshared=4
# opt freq B3LYP/6-31G(d) empiricaldispersion=gd3bj scf=xqc

CID_80494834_JID_3938_neutraal

0 1
C          0.99168       -0.09485       -0.03055
C          0.59410       -1.47004        0.48437
C          1.07754       -1.74525        1.91284
C          0.53381       -0.79123        2.99719
C         -0.99752       -0.84119        3.07194
C          1.11343       -1.11542        4.39841
C          2.64379       -0.99798        4.52538
C          3.19837        0.37070        4.24927
N          4.44918        0.53447        3.78501
N          4.53660        1.87210        3.69514
N          3.47743        2.60044        4.08227
C          2.61971        1.64329        4.44422
N          3.04730       -1.38918        5.88799
H          0.47437        0.70191        0.51166
H          0.72655        0.00031       -1.08848
H          2.07052        0.06438        0.06360
H         -0.49137       -1.59376        0.41069
H          1.03377       -2.22708       -0.17666
H          0.81119       -2.77730        2.17454
H          2.17209       -1.70334        1.89786
H          0.81269        0.23561        2.73902
H         -1.35233       -1.86039        3.25860
H         -1.36901       -0.20073        3.87933
H         -1.45505       -0.48358        2.14474
H          0.63614       -0.45444        5.13561
H          0.81316       -2.13730        4.67036
H          3.11353       -1.71700        3.84532
H          5.38152        2.31987        3.34838
H          1.64119        1.90771        4.82056
H          4.06799       -1.33823        5.92459
H          2.71572       -0.69327        6.55338

--Link1--
%chk=JID_3938.chk
%mem=8GB
%nprocshared=4
# B3LYP/6-311++G(d,p) empiricaldispersion=gd3bj scf=xqc pop=npa geom=check

CID_80494834_JID_3938_Energie_neutraal

0 1

--Link1--
%chk=JID_3938.chk
%mem=8GB
%nprocshared=4
# B3LYP/6-311++G(d,p) empiricaldispersion=gd3bj scf=xqc pop=npa geom=check

CID_80494834_JID_3938_Energie_kation

1 2

--Link1--
%chk=JID_3938.chk
%mem=8GB
%nprocshared=4
# B3LYP/6-311++G(d,p) empiricaldispersion=gd3bj scf=xqc pop=npa geom=check

CID_80494834_JID_3938_Energie_anion

-1 2
