%chk=JID_10133.chk
%mem=8GB
%nprocshared=4
# opt freq B3LYP/6-31G(d) empiricaldispersion=gd3bj scf=xqc

CID_66268355_JID_10133_neutraal

0 1
C          1.00020       -0.04067        0.09136
C          0.42012       -0.07020       -1.32079
C          0.72926       -1.41431       -1.98453
C         -1.10285        0.18768       -1.33397
C         -1.52816        1.56920       -0.79284
C         -0.82023        2.65443       -1.61609
O         -0.92299        2.77938       -2.83004
O          0.00213        3.38935       -0.81224
C          0.82013        4.32944       -1.50828
N         -3.00141        1.67058       -0.91323
C         -3.61533        2.58859        0.04992
C         -3.46678        4.02228       -0.32488
C         -3.46092        5.13940        0.48532
N         -3.35915        6.17847       -0.38774
N         -3.28276        5.74884       -1.65733
N         -3.37194        4.42699       -1.63390
C         -3.34288        7.59399       -0.10070
C         -1.94437        8.14288        0.17069
C         -0.94704        7.90195       -0.95635
O         -1.48512        8.30730       -2.20355
H          0.50417       -0.77137        0.73912
H          0.89771        0.94692        0.54995
H          2.06965       -0.27778        0.07506
H          0.92501        0.70283       -1.91235
H          0.26849       -2.24470       -1.43947
H          0.35640       -1.43340       -3.01420
H          1.80997       -1.58923       -2.02081
H         -1.46132        0.07761       -2.36725
H         -1.60360       -0.59626       -0.74901
H         -1.23652        1.64290        0.26065
H          0.28990        4.81570       -2.33294
H          1.12501        5.10139       -0.79649
H          1.71771        3.82303       -1.87503
H         -3.23140        1.98748       -1.86168
H         -4.68775        2.36334        0.08620
H         -3.23125        2.40716        1.06084
H         -3.54086        5.27187        1.55394
H         -3.81516        8.11136       -0.94408
H         -3.98362        7.75673        0.77350
H         -2.04067        9.22390        0.33032
H         -1.54303        7.71630        1.09757
H         -0.03707        8.48248       -0.77379
H         -0.65550        6.84974       -1.01692
H         -1.94624        7.53133       -2.58375

--Link1--
%chk=JID_10133.chk
%mem=8GB
%nprocshared=4
# B3LYP/6-311++G(d,p) empiricaldispersion=gd3bj scf=xqc pop=npa geom=check

CID_66268355_JID_10133_Energie_neutraal

0 1

--Link1--
%chk=JID_10133.chk
%mem=8GB
%nprocshared=4
# B3LYP/6-311++G(d,p) empiricaldispersion=gd3bj scf=xqc pop=npa geom=check

CID_66268355_JID_10133_Energie_kation

1 2

--Link1--
%chk=JID_10133.chk
%mem=8GB
%nprocshared=4
# B3LYP/6-311++G(d,p) empiricaldispersion=gd3bj scf=xqc pop=npa geom=check

CID_66268355_JID_10133_Energie_anion

-1 2
