%chk=JID_2307.chk
%mem=8GB
%nprocshared=4
# opt freq B3LYP/6-31G(d) empiricaldispersion=gd3bj scf=xqc

CID_79966530_JID_2307_neutraal

0 1
C          1.06008       -0.00287       -0.07989
N          0.42565        0.86525       -1.05620
C         -0.96594        0.52177       -1.36962
C         -1.82349        0.68039       -0.12369
C         -1.93183        1.98424        0.63514
C         -3.14500        1.41252       -0.04371
C         -1.51692        1.20269       -2.66876
C         -1.46455        2.73695       -2.77702
S          0.17538        3.52759       -2.86611
C          0.79790        2.70325       -4.36460
C          0.82044        1.18229       -4.27543
S         -0.83687        0.42315       -4.21338
H          1.00730       -1.05281       -0.38510
H          0.62190        0.10433        0.91677
H          2.11999        0.25898       -0.00135
H          0.49336        1.84298       -0.77327
H         -0.99284       -0.55683       -1.58421
H         -1.75624       -0.22102        0.48393
H         -1.88728        1.93956        1.71853
H         -1.48246        2.88035        0.22657
H         -3.54842        1.94071       -0.89629
H         -3.91780        0.98292        0.58719
H         -2.57928        0.93298       -2.72327
H         -2.02611        3.06101       -3.66246
H         -1.98055        3.19769       -1.93295
H          1.82002        3.06342       -4.52372
H          0.20909        3.03969       -5.22534
H          1.43556        0.83109       -3.44295
H          1.29726        0.79412       -5.18263

--Link1--
%chk=JID_2307.chk
%mem=8GB
%nprocshared=4
# B3LYP/6-311++G(d,p) empiricaldispersion=gd3bj scf=xqc pop=npa geom=check

CID_79966530_JID_2307_Energie_neutraal

0 1

--Link1--
%chk=JID_2307.chk
%mem=8GB
%nprocshared=4
# B3LYP/6-311++G(d,p) empiricaldispersion=gd3bj scf=xqc pop=npa geom=check

CID_79966530_JID_2307_Energie_kation

1 2

--Link1--
%chk=JID_2307.chk
%mem=8GB
%nprocshared=4
# B3LYP/6-311++G(d,p) empiricaldispersion=gd3bj scf=xqc pop=npa geom=check

CID_79966530_JID_2307_Energie_anion

-1 2
