%chk=JID_8531.chk
%mem=8GB
%nprocshared=4
# opt freq B3LYP/6-31G(d) empiricaldispersion=gd3bj scf=xqc

CID_107441435_JID_8531_neutraal

0 1
C          2.49200        0.00400       -0.01400
C          0.99881       -0.15585       -0.13945
C          0.39601       -1.42673       -0.17905
C         -0.98545       -1.46182       -0.37567
C         -1.75705       -0.28857       -0.43798
C         -1.19132        0.98839       -0.34640
C          0.20383        1.01423       -0.19419
N         -1.96464        2.15347       -0.36964
C         -3.35573        2.07762       -0.80973
C         -1.30713        3.44436       -0.55851
N          1.19371       -2.57587       -0.14455
C          0.62220       -3.91337        0.02522
C          0.32078       -4.58014       -1.33799
C          1.61409       -4.72667       -2.17859
N          2.57063       -5.69295       -1.63551
C         -0.45125       -5.92843       -1.15756
C         -1.82245       -5.72192       -0.49672
C         -0.67184       -6.66283       -2.48748
H          2.82241       -0.31223        0.98050
H          3.00758       -0.58790       -0.77743
H          2.80097        1.04529       -0.15473
H         -1.51455       -2.40420       -0.47092
H         -2.82757       -0.41919       -0.55994
H          0.72040        1.96629       -0.11680
H         -3.83964        3.06014       -0.77168
H         -3.42280        1.71646       -1.84186
H         -3.94481        1.42851       -0.15293
H         -0.61318        3.65932        0.26128
H         -0.77147        3.47755       -1.51361
H         -2.03309        4.26530       -0.55895
H          2.01422       -2.43392        0.43841
H          1.34828       -4.52485        0.57460
H         -0.25445       -3.86417        0.67682
H         -0.33319       -3.90820       -1.91051
H          1.35464       -5.03269       -3.19798
H          2.11436       -3.75739       -2.28535
H          3.33801       -5.79859       -2.29934
H          2.99485       -5.30445       -0.79433
H          0.13315       -6.58963       -0.50473
H         -2.42141       -4.99022       -1.04938
H         -2.38567       -6.66128       -0.46425
H         -1.72882       -5.37985        0.53723
H          0.27211       -7.00702       -2.91993
H         -1.29304       -7.55394       -2.34399
H         -1.17175       -6.01735       -3.21745

--Link1--
%chk=JID_8531.chk
%mem=8GB
%nprocshared=4
# B3LYP/6-311++G(d,p) empiricaldispersion=gd3bj scf=xqc pop=npa geom=check

CID_107441435_JID_8531_Energie_neutraal

0 1

--Link1--
%chk=JID_8531.chk
%mem=8GB
%nprocshared=4
# B3LYP/6-311++G(d,p) empiricaldispersion=gd3bj scf=xqc pop=npa geom=check

CID_107441435_JID_8531_Energie_kation

1 2

--Link1--
%chk=JID_8531.chk
%mem=8GB
%nprocshared=4
# B3LYP/6-311++G(d,p) empiricaldispersion=gd3bj scf=xqc pop=npa geom=check

CID_107441435_JID_8531_Energie_anion

-1 2
