%chk=JID_4778.chk
%mem=8GB
%nprocshared=4
# opt freq B3LYP/6-31G(d) empiricaldispersion=gd3bj scf=xqc

CID_131198093_JID_4778_neutraal

0 1
C          2.60700        0.96000       -0.00600
C          1.24843        0.33084       -0.15363
C          0.11839        1.16157       -0.17231
C         -1.14615        0.60322       -0.33093
N         -1.33666       -0.72295       -0.48358
C         -0.23828       -1.51175       -0.46541
C          1.07146       -1.05772       -0.30195
C          2.22039       -2.03947       -0.28707
C          2.41173       -2.75941        1.04750
C          2.33797       -1.98966        2.39966
C          1.86141       -3.31326        3.03651
C          1.32939       -3.70889        1.64238
O          2.05209       -3.02483       -1.30828
C         -2.36193        1.47998       -0.34302
H          3.17449        0.85360       -0.93583
H          2.53234        2.02933        0.21917
H          3.15970        0.49623        0.81673
H          0.21968        2.23760       -0.06300
H         -0.45128       -2.57067       -0.59700
H          3.15062       -1.52026       -0.53928
H          3.37330       -3.29790        0.97559
H          3.28733       -1.59970        2.77556
H          1.58435       -1.19662        2.45218
H          1.10878       -3.22017        3.82333
H          2.67752       -3.95072        3.39567
H          0.28950       -3.40923        1.48523
H          1.43413       -4.76525        1.38053
H          1.78489       -2.55534       -2.11805
H         -2.43371        2.04020        0.59447
H         -2.31248        2.18319       -1.18001
H         -3.27264        0.88222       -0.45224

--Link1--
%chk=JID_4778.chk
%mem=8GB
%nprocshared=4
# B3LYP/6-311++G(d,p) empiricaldispersion=gd3bj scf=xqc pop=npa geom=check

CID_131198093_JID_4778_Energie_neutraal

0 1

--Link1--
%chk=JID_4778.chk
%mem=8GB
%nprocshared=4
# B3LYP/6-311++G(d,p) empiricaldispersion=gd3bj scf=xqc pop=npa geom=check

CID_131198093_JID_4778_Energie_kation

1 2

--Link1--
%chk=JID_4778.chk
%mem=8GB
%nprocshared=4
# B3LYP/6-311++G(d,p) empiricaldispersion=gd3bj scf=xqc pop=npa geom=check

CID_131198093_JID_4778_Energie_anion

-1 2
