%chk=JID_7570.chk
%mem=8GB
%nprocshared=4
# opt freq B3LYP/6-31G(d) empiricaldispersion=gd3bj scf=xqc

CID_61730643_JID_7570_neutraal

0 1
C         -1.10600       -0.72000       -0.20700
C          0.05661       -1.43593        0.45334
O          0.40641       -0.68431        1.62051
C         -0.59341        0.32039        1.82434
C         -1.79710       -0.07020        0.97583
C         -2.64081        1.14549        0.61962
O         -3.97270        0.95280        0.15662
C         -4.32272       -0.21333       -0.57945
C         -3.82345       -0.21468       -1.99837
C         -3.32657        0.77312       -2.83004
C         -2.97894        0.28457       -4.12409
C         -3.23779       -1.05820       -4.26213
S         -3.90773       -1.72492       -2.84398
C         -3.19315        2.14540       -2.46557
C         -3.17052        3.40155       -2.11683
C         -3.14413        4.86594       -1.71028
N         -3.07669        5.69715       -2.90015
H         -0.72645        0.03154       -0.90912
H         -1.72144       -1.43156       -0.75567
H         -0.23175       -2.44122        0.77861
H          0.92460       -1.52021       -0.20678
H         -0.16371        1.28037        1.51522
H         -0.83699        0.37997        2.88931
H         -2.38963       -0.82117        1.51216
H         -2.74625        1.77012        1.51526
H         -2.10179        1.77176       -0.09582
H         -4.02323       -1.11155       -0.03033
H         -5.41895       -0.22861       -0.61517
H         -2.57327        0.89487       -4.92207
H         -3.07990       -1.67658       -5.13515
H         -4.04869        5.09935       -1.14030
H         -2.27504        5.04821       -1.07004
H         -2.98772        6.67169       -2.62175
H         -2.23191        5.46544       -3.41925

--Link1--
%chk=JID_7570.chk
%mem=8GB
%nprocshared=4
# B3LYP/6-311++G(d,p) empiricaldispersion=gd3bj scf=xqc pop=npa geom=check

CID_61730643_JID_7570_Energie_neutraal

0 1

--Link1--
%chk=JID_7570.chk
%mem=8GB
%nprocshared=4
# B3LYP/6-311++G(d,p) empiricaldispersion=gd3bj scf=xqc pop=npa geom=check

CID_61730643_JID_7570_Energie_kation

1 2

--Link1--
%chk=JID_7570.chk
%mem=8GB
%nprocshared=4
# B3LYP/6-311++G(d,p) empiricaldispersion=gd3bj scf=xqc pop=npa geom=check

CID_61730643_JID_7570_Energie_anion

-1 2
