%chk=JID_8153.chk
%mem=8GB
%nprocshared=4
# opt freq B3LYP/6-31G(d) empiricaldispersion=gd3bj scf=xqc

CID_64793375_JID_8153_neutraal

0 1
C          2.44200       -0.09800       -0.00700
C          0.94716       -0.18242       -0.08820
N          0.23425        0.53252        0.81579
C         -1.11810        0.46207        0.74007
C         -1.79423       -0.32447       -0.17894
C         -1.04705       -1.03175       -1.12053
C          0.34418       -0.96591       -1.07039
C         -3.26534       -0.32183       -0.17883
O         -3.84686        0.75970       -0.10775
N         -3.98946       -1.47818       -0.35361
C         -3.67629       -2.82798       -0.10948
C         -4.55594       -3.78615       -0.62532
C         -4.32970       -5.15025       -0.41850
C         -3.22254       -5.58085        0.31979
C         -2.36785       -4.62145        0.87278
C         -2.59548       -3.25622        0.66273
C         -2.99758       -7.04742        0.57089
O         -3.78575       -7.49546        1.66438
H          2.84791        0.31797       -0.93430
H          2.75149        0.54786        0.82099
H          2.86831       -1.09223        0.15888
H         -1.65319        1.06812        1.46668
H         -1.53546       -1.62588       -1.88760
H          0.94485       -1.51455       -1.78921
H         -4.94956       -1.28159       -0.61507
H         -5.42323       -3.48595       -1.20904
H         -5.02622       -5.87604       -0.83461
H         -1.52191       -4.92759        1.48605
H         -1.92922       -2.55724        1.15726
H         -3.25824       -7.63608       -0.31493
H         -1.94499       -7.24787        0.79704
H         -4.17035       -6.71405        2.09721

--Link1--
%chk=JID_8153.chk
%mem=8GB
%nprocshared=4
# B3LYP/6-311++G(d,p) empiricaldispersion=gd3bj scf=xqc pop=npa geom=check

CID_64793375_JID_8153_Energie_neutraal

0 1

--Link1--
%chk=JID_8153.chk
%mem=8GB
%nprocshared=4
# B3LYP/6-311++G(d,p) empiricaldispersion=gd3bj scf=xqc pop=npa geom=check

CID_64793375_JID_8153_Energie_kation

1 2

--Link1--
%chk=JID_8153.chk
%mem=8GB
%nprocshared=4
# B3LYP/6-311++G(d,p) empiricaldispersion=gd3bj scf=xqc pop=npa geom=check

CID_64793375_JID_8153_Energie_anion

-1 2
