%chk=JID_3893.chk
%mem=8GB
%nprocshared=4
# opt freq B3LYP/6-31G(d) empiricaldispersion=gd3bj scf=xqc

CID_130745292_JID_3893_neutraal

0 1
C          1.06760       -0.02922        0.06765
C          0.89077       -1.53937       -0.19879
C          1.15470       -2.32719        1.09016
C         -0.61726       -1.75571       -0.51631
C          1.72922       -1.95914       -1.46118
C          1.50310       -3.37430       -2.01549
C          2.57931       -3.53959       -3.08527
C          3.30849       -2.20208       -3.11741
N          3.15717       -1.64569       -1.74609
C          4.29550       -2.16968       -0.96075
C          4.54278       -1.43613        0.36079
N          4.90231       -2.74793        0.97195
C          4.12715       -3.42483       -0.10526
H          0.46950        0.29371        0.92771
H          0.74397        0.56359       -0.79589
H          2.10468        0.24041        0.27254
H          0.43939       -2.04224        1.87222
H          1.03431       -3.40403        0.93518
H          2.13988       -2.14303        1.51207
H         -0.91296       -1.23560       -1.43451
H         -0.85471       -2.81806       -0.63836
H         -1.25169       -1.37260        0.29199
H          1.23855       -1.31970       -2.21828
H          1.59408       -4.15552       -1.25663
H          0.51114       -3.47032       -2.47076
H          3.26164       -4.35061       -2.80694
H          2.14766       -3.78494       -4.06080
H          4.34436       -2.30139       -3.46087
H          2.81895       -1.52532       -3.83029
H          5.23830       -2.19157       -1.53117
H          5.36596       -0.71354        0.34046
H          3.70238       -0.95464        0.85523
H          5.90296       -2.94236        0.92668
H          3.13354       -3.71741        0.22250
H          4.61463       -4.32055       -0.50518

--Link1--
%chk=JID_3893.chk
%mem=8GB
%nprocshared=4
# B3LYP/6-311++G(d,p) empiricaldispersion=gd3bj scf=xqc pop=npa geom=check

CID_130745292_JID_3893_Energie_neutraal

0 1

--Link1--
%chk=JID_3893.chk
%mem=8GB
%nprocshared=4
# B3LYP/6-311++G(d,p) empiricaldispersion=gd3bj scf=xqc pop=npa geom=check

CID_130745292_JID_3893_Energie_kation

1 2

--Link1--
%chk=JID_3893.chk
%mem=8GB
%nprocshared=4
# B3LYP/6-311++G(d,p) empiricaldispersion=gd3bj scf=xqc pop=npa geom=check

CID_130745292_JID_3893_Energie_anion

-1 2
