%chk=JID_9534.chk
%mem=8GB
%nprocshared=4
# opt freq B3LYP/6-31G(d) empiricaldispersion=gd3bj scf=xqc

CID_103276530_JID_9534_neutraal

0 1
C          0.95489       -0.08156       -0.03624
C          0.15489       -0.74282        1.08635
C          0.85251       -1.99146        1.65829
C          0.44014       -3.32272        1.00302
C         -1.09492       -3.46485        1.03595
C         -1.83983       -2.21824        0.62756
C         -1.26064       -1.00494        0.64114
C         -3.27661       -2.40952        0.23532
C          0.97436       -3.54462       -0.42933
N          2.43876       -3.54739       -0.45924
C          2.98410       -3.97526       -1.74838
C          2.94489       -2.91484       -2.85340
C          3.50445       -3.43592       -4.18121
C          4.41319       -2.32545       -4.70013
N          4.12405       -1.13323       -3.89179
C          3.80408       -1.68771       -2.56394
C          3.07217       -0.21753       -4.38648
C          3.22339        0.42289       -5.74156
C          2.09762       -0.53741       -5.48501
H          0.51969        0.89008       -0.29779
H          0.97284       -0.68115       -0.94934
H          1.98974        0.09733        0.27438
H          0.10567       -0.00874        1.90245
H          0.57710       -2.06086        2.72115
H          1.94088       -1.86495        1.65682
H          0.85109       -4.13359        1.62177
H         -1.39668       -4.30480        0.39807
H         -1.40849       -3.72262        2.05619
H         -1.83937       -0.13006        0.34928
H         -3.83586       -2.86668        1.05810
H         -3.76572       -1.46211       -0.01426
H         -3.34745       -3.06287       -0.64015
H          0.61342       -4.52241       -0.77344
H          0.56875       -2.80047       -1.11968
H          2.79727       -2.62883       -0.20728
H          4.02778       -4.26590       -1.57440
H          2.47918       -4.88909       -2.08610
H          1.90729       -2.59895       -3.02487
H          2.68297       -3.63259       -4.87912
H          4.06954       -4.36719       -4.06362
H          5.45834       -2.61001       -4.52130
H          4.32655       -2.18078       -5.78113
H          3.30168       -0.96706       -1.91042
H          4.74050       -1.96973       -2.06560
H          2.71097        0.46858       -3.61862
H          2.98689        1.47709       -5.82802
H          4.03783        0.10478       -6.38076
H          2.12761       -1.49412       -5.98793
H          1.09608       -0.13015       -5.39931

--Link1--
%chk=JID_9534.chk
%mem=8GB
%nprocshared=4
# B3LYP/6-311++G(d,p) empiricaldispersion=gd3bj scf=xqc pop=npa geom=check

CID_103276530_JID_9534_Energie_neutraal

0 1

--Link1--
%chk=JID_9534.chk
%mem=8GB
%nprocshared=4
# B3LYP/6-311++G(d,p) empiricaldispersion=gd3bj scf=xqc pop=npa geom=check

CID_103276530_JID_9534_Energie_kation

1 2

--Link1--
%chk=JID_9534.chk
%mem=8GB
%nprocshared=4
# B3LYP/6-311++G(d,p) empiricaldispersion=gd3bj scf=xqc pop=npa geom=check

CID_103276530_JID_9534_Energie_anion

-1 2
