%chk=JID_9079.chk
%mem=8GB
%nprocshared=4
# opt freq B3LYP/6-31G(d) empiricaldispersion=gd3bj scf=xqc

CID_115244332_JID_9079_neutraal

0 1
C         -3.40300        0.03800        0.00100
C         -1.93332       -0.09600       -0.13319
N         -1.26132       -1.19597       -0.40148
C          0.05969       -0.82098       -0.45315
C          0.19925        0.53718       -0.19827
N         -1.08408        0.97426        0.00809
C          1.43184        1.19556       -0.19229
C          2.57342        0.42323       -0.47690
C          2.45175       -0.95222       -0.73133
C          1.20195       -1.58747       -0.71906
C          3.93662        1.08171       -0.50584
C          4.61213        1.17071        0.87237
N          5.12654       -0.12533        1.30520
C          5.85547       -0.08707        2.56885
C          5.03126       -0.34078        3.82795
C          4.24917        0.83810        4.39143
C          3.50373       -0.33231        3.82953
C          5.73455       -1.21969        4.84652
N          5.66639       -2.60658        4.41199
H         -3.66487        0.46295        0.97488
H         -3.80222        0.68857       -0.78313
H         -3.88808       -0.93908       -0.08593
H         -1.35954        1.92297        0.21285
H          1.50319        2.25945        0.00763
H          3.33834       -1.54607       -0.94846
H          1.10969       -2.64859       -0.92088
H          4.58824        0.56133       -1.22011
H          3.82066        2.09703       -0.90783
H          5.45108        1.87159        0.78466
H          3.90848        1.58773        1.59862
H          4.38760       -0.82407        1.35640
H          6.62133       -0.86798        2.48992
H          6.41849        0.84870        2.67853
H          4.22243        0.98524        5.46596
H          4.23538        1.76969        3.83850
H          2.95237       -0.18658        2.90913
H          2.98504       -0.98271        4.52642
H          6.78027       -0.91123        4.95421
H          5.26760       -1.13324        5.83444
H          6.07676       -3.20359        5.12736
H          4.68972       -2.88493        4.33291

--Link1--
%chk=JID_9079.chk
%mem=8GB
%nprocshared=4
# B3LYP/6-311++G(d,p) empiricaldispersion=gd3bj scf=xqc pop=npa geom=check

CID_115244332_JID_9079_Energie_neutraal

0 1

--Link1--
%chk=JID_9079.chk
%mem=8GB
%nprocshared=4
# B3LYP/6-311++G(d,p) empiricaldispersion=gd3bj scf=xqc pop=npa geom=check

CID_115244332_JID_9079_Energie_kation

1 2

--Link1--
%chk=JID_9079.chk
%mem=8GB
%nprocshared=4
# B3LYP/6-311++G(d,p) empiricaldispersion=gd3bj scf=xqc pop=npa geom=check

CID_115244332_JID_9079_Energie_anion

-1 2
