%chk=JID_1774.chk
%mem=8GB
%nprocshared=4
# opt freq B3LYP/6-31G(d) empiricaldispersion=gd3bj scf=xqc

CID_118327878_JID_1774_neutraal

0 1
C          1.07842       -0.06011       -0.01544
C          0.31896       -1.23469       -0.60978
O          1.21848       -2.10609       -1.26864
O         -0.33819       -1.92572        0.44573
C         -1.26183       -2.90138       -0.05121
C         -1.91349       -3.60713        1.13300
C         -0.89193       -4.40666        1.94719
N         -1.08251       -4.18134        3.38109
C         -0.56500       -3.13277        3.90132
N          0.13578       -2.12804        3.32832
N         -0.68780       -2.91081        5.22787
H          1.80702       -0.40347        0.72778
H          0.39565        0.62773        0.49327
H          1.62919        0.48220       -0.79016
H         -0.41375       -0.86531       -1.33611
H          1.96104       -2.24335       -0.65752
H         -2.03334       -2.39833       -0.64500
H         -0.74316       -3.62913       -0.68542
H         -2.40932       -2.85714        1.76124
H         -2.69347       -4.28438        0.76607
H         -1.04377       -5.47539        1.75438
H          0.14481       -4.20576        1.65012
H         -0.10321       -1.22958        3.72992
H          0.02939       -2.08555        2.31377
H         -1.07065       -3.73916        5.67372
H          0.19508       -2.65539        5.65220

--Link1--
%chk=JID_1774.chk
%mem=8GB
%nprocshared=4
# B3LYP/6-311++G(d,p) empiricaldispersion=gd3bj scf=xqc pop=npa geom=check

CID_118327878_JID_1774_Energie_neutraal

0 1

--Link1--
%chk=JID_1774.chk
%mem=8GB
%nprocshared=4
# B3LYP/6-311++G(d,p) empiricaldispersion=gd3bj scf=xqc pop=npa geom=check

CID_118327878_JID_1774_Energie_kation

1 2

--Link1--
%chk=JID_1774.chk
%mem=8GB
%nprocshared=4
# B3LYP/6-311++G(d,p) empiricaldispersion=gd3bj scf=xqc pop=npa geom=check

CID_118327878_JID_1774_Energie_anion

-1 2
