%chk=JID_10281.chk
%mem=8GB
%nprocshared=4
# opt freq B3LYP/6-31G(d) empiricaldispersion=gd3bj scf=xqc

CID_149773268_JID_10281_neutraal

0 1
C          0.67700        1.21600        0.00700
C         -0.35821        0.73051       -0.75732
N         -0.89381       -0.49776       -0.59415
C         -0.40522       -1.32077        0.37534
C          0.63307       -0.87955        1.19061
C          1.19247        0.38916        0.99352
N          2.22517        0.86122        1.81946
N          3.33420        0.37297        1.52253
N          4.35397       -0.06143        1.25394
N         -1.03264       -2.62378        0.50248
C         -2.16481       -2.89567       -0.27180
C         -2.83345       -4.05253       -0.24035
C         -2.37995       -5.10732        0.64560
C         -1.25131       -4.91266        1.43445
C         -0.51291       -3.61987        1.36122
O          0.50259       -3.53986        2.04969
C         -0.81134       -5.92797        2.28778
C         -1.52921       -7.10863        2.31656
N         -2.62881       -7.33201        1.56574
C         -3.02852       -6.32973        0.74857
H          1.06875        2.21350       -0.15341
H         -0.80469        1.33071       -1.54500
H          1.02736       -1.46953        2.00642
H         -2.51510       -2.10499       -0.93143
H         -3.70870       -4.21113       -0.86086
H          0.06683       -5.80303        2.91263
H         -1.23158       -7.93073        2.96184
H         -3.91625       -6.55365        0.16282

--Link1--
%chk=JID_10281.chk
%mem=8GB
%nprocshared=4
# B3LYP/6-311++G(d,p) empiricaldispersion=gd3bj scf=xqc pop=npa geom=check

CID_149773268_JID_10281_Energie_neutraal

0 1

--Link1--
%chk=JID_10281.chk
%mem=8GB
%nprocshared=4
# B3LYP/6-311++G(d,p) empiricaldispersion=gd3bj scf=xqc pop=npa geom=check

CID_149773268_JID_10281_Energie_kation

1 2

--Link1--
%chk=JID_10281.chk
%mem=8GB
%nprocshared=4
# B3LYP/6-311++G(d,p) empiricaldispersion=gd3bj scf=xqc pop=npa geom=check

CID_149773268_JID_10281_Energie_anion

-1 2
