%chk=JID_471.chk
%mem=8GB
%nprocshared=4
# opt freq B3LYP/6-31G(d) empiricaldispersion=gd3bj scf=xqc

CID_43184582_JID_471_neutraal

0 1
C          0.95744        0.08532       -0.03016
C          0.60128       -0.30908        1.39484
C          1.14425        0.65788        2.45383
C          0.65075        2.11485        2.34679
C         -0.90299        2.28227        2.40965
C         -1.68802        1.58576        3.54401
C         -1.20425        1.76330        4.97613
O         -1.27949        3.64647        2.14040
C         -1.54233        4.50225        3.23519
N          1.40053        2.92399        3.32301
H          0.45742        1.01151       -0.32771
H          0.64166       -0.69849       -0.72624
H          2.03757        0.22212       -0.14226
H         -0.48469       -0.41312        1.48419
H          1.02137       -1.30280        1.59339
H          0.90532        0.24947        3.44266
H          2.24107        0.64818        2.38480
H          0.96800        2.50788        1.37257
H         -1.26463        1.78072        1.50182
H         -2.73564        1.90750        3.49447
H         -1.69691        0.50682        3.34547
H         -1.12434        2.81045        5.27099
H         -1.91441        1.28741        5.66157
H         -0.23832        1.27954        5.13960
H         -2.45018        4.19657        3.76144
H         -0.69826        4.55838        3.92394
H         -1.71598        5.50757        2.84009
H          1.19714        3.90646        3.14005
H          1.08256        2.73418        4.26838

--Link1--
%chk=JID_471.chk
%mem=8GB
%nprocshared=4
# B3LYP/6-311++G(d,p) empiricaldispersion=gd3bj scf=xqc pop=npa geom=check

CID_43184582_JID_471_Energie_neutraal

0 1

--Link1--
%chk=JID_471.chk
%mem=8GB
%nprocshared=4
# B3LYP/6-311++G(d,p) empiricaldispersion=gd3bj scf=xqc pop=npa geom=check

CID_43184582_JID_471_Energie_kation

1 2

--Link1--
%chk=JID_471.chk
%mem=8GB
%nprocshared=4
# B3LYP/6-311++G(d,p) empiricaldispersion=gd3bj scf=xqc pop=npa geom=check

CID_43184582_JID_471_Energie_anion

-1 2
