%chk=JID_10720.chk
%mem=8GB
%nprocshared=4
# opt freq B3LYP/6-31G(d) empiricaldispersion=gd3bj scf=xqc

CID_68631259_JID_10720_neutraal

0 1
C          1.05109        0.08297       -0.02247
N          0.41581       -1.14652       -0.54035
C         -1.07352       -1.11540       -0.49698
C         -1.78638       -0.21083       -1.47205
N         -2.20484       -0.74755       -2.64743
C         -2.83165        0.09929       -3.49713
C         -3.04788        1.43040       -3.19009
N         -2.65019        1.97535       -2.01891
C         -2.01428        1.12924       -1.17494
S          1.15457       -1.73981       -1.95955
O          0.71183       -0.93086       -3.07553
O          2.56825       -1.88623       -1.67897
C          0.48688       -3.36700       -2.13745
C         -0.35537       -3.71469       -3.19451
C         -0.81251       -5.02820       -3.30403
C         -0.42710       -5.98133       -2.36557
C          0.41744       -5.64709       -1.31182
C          0.88038       -4.33533       -1.19942
O         -0.90143       -7.25072       -2.51683
O         -0.78767       -2.85967       -4.16783
H          0.55420        0.41144        0.89596
H          1.00165        0.89357       -0.75517
H          2.09687       -0.11016        0.23439
H         -1.44921       -2.13745       -0.62658
H         -1.38359       -0.84918        0.52256
H         -3.15599       -0.32648       -4.44021
H         -3.54992        2.09763       -3.88122
H         -1.69327        1.57098       -0.23784
H         -1.46880       -5.30798       -4.12372
H          0.72921       -6.38761       -0.58168
H          1.55567       -4.07061       -0.38764
H         -0.51760       -7.81588       -1.82675
H         -0.59702       -1.92912       -3.91312

--Link1--
%chk=JID_10720.chk
%mem=8GB
%nprocshared=4
# B3LYP/6-311++G(d,p) empiricaldispersion=gd3bj scf=xqc pop=npa geom=check

CID_68631259_JID_10720_Energie_neutraal

0 1

--Link1--
%chk=JID_10720.chk
%mem=8GB
%nprocshared=4
# B3LYP/6-311++G(d,p) empiricaldispersion=gd3bj scf=xqc pop=npa geom=check

CID_68631259_JID_10720_Energie_kation

1 2

--Link1--
%chk=JID_10720.chk
%mem=8GB
%nprocshared=4
# B3LYP/6-311++G(d,p) empiricaldispersion=gd3bj scf=xqc pop=npa geom=check

CID_68631259_JID_10720_Energie_anion

-1 2
