%chk=JID_9548.chk
%mem=8GB
%nprocshared=4
# opt freq B3LYP/6-31G(d) empiricaldispersion=gd3bj scf=xqc

CID_108140812_JID_9548_neutraal

0 1
C         -2.47500       -0.07800       -0.00600
C         -0.98956       -0.26749        0.07190
C         -0.39185       -1.50894        0.10582
C          0.98645       -1.58625        0.17836
N          1.72192       -0.45608        0.22748
C          1.08890        0.72559        0.20279
N         -0.24288        0.85802        0.11245
N          1.90364        1.84204        0.28112
C          1.41710        3.00966       -0.41701
N          1.65546       -2.83652        0.19753
C          2.86328       -2.79145        1.05753
C          3.40394       -4.20123        1.27005
S          3.99198       -4.93857       -0.28638
O          5.02405       -4.02575       -0.87985
C          2.43712       -4.70785       -1.20173
C          1.98728       -3.25106       -1.18860
N         -1.18626       -2.69609        0.10605
O         -1.62012       -3.08746        1.19775
O         -1.43293       -3.20861       -0.99499
H         -2.72729        0.98674       -0.05322
H         -2.87697       -0.55500       -0.90522
H         -2.96268       -0.49739        0.87930
H          2.84049        1.54130        0.03565
H          2.16384        3.80706       -0.34668
H          1.25041        2.80269       -1.47992
H          0.49182        3.39104        0.02842
H          3.63929       -2.14583        0.62474
H          2.59759       -2.38387        2.04173
H          2.63635       -4.86321        1.68445
H          4.25219       -4.18311        1.96110
H          1.68234       -5.36085       -0.75099
H          2.61254       -5.04251       -2.22865
H          1.10595       -3.16925       -1.83574
H          2.76057       -2.59718       -1.61407

--Link1--
%chk=JID_9548.chk
%mem=8GB
%nprocshared=4
# B3LYP/6-311++G(d,p) empiricaldispersion=gd3bj scf=xqc pop=npa geom=check

CID_108140812_JID_9548_Energie_neutraal

0 1

--Link1--
%chk=JID_9548.chk
%mem=8GB
%nprocshared=4
# B3LYP/6-311++G(d,p) empiricaldispersion=gd3bj scf=xqc pop=npa geom=check

CID_108140812_JID_9548_Energie_kation

1 2

--Link1--
%chk=JID_9548.chk
%mem=8GB
%nprocshared=4
# B3LYP/6-311++G(d,p) empiricaldispersion=gd3bj scf=xqc pop=npa geom=check

CID_108140812_JID_9548_Energie_anion

-1 2
