%chk=JID_4830.chk
%mem=8GB
%nprocshared=4
# opt freq B3LYP/6-31G(d) empiricaldispersion=gd3bj scf=xqc

CID_112581291_JID_4830_neutraal

0 1
C          0.94364        0.05206        0.06413
O          0.39879       -1.06888       -0.63279
C          1.12669       -1.47151       -1.72290
O          2.14090       -0.87804       -2.09508
C          0.53847       -2.73982       -2.42846
C          1.12666       -4.11313       -2.00351
C         -0.31900       -4.63026       -2.15089
N         -0.76662       -3.24641       -1.89047
C         -1.94622       -2.84029       -2.67302
C         -1.88331       -2.88229       -4.18382
N         -1.89721       -3.98214       -4.91238
C         -1.83934       -3.66157       -6.25359
C         -1.79615       -2.31613       -6.54192
S         -1.83246       -1.41174       -5.08815
H          0.33927        0.21991        0.95985
H          0.89233        0.94761       -0.56252
H          1.97383       -0.14640        0.37632
H          0.58620       -2.62585       -3.51956
H          1.86249       -4.55265       -2.68153
H          1.51394       -4.14606       -0.97804
H         -0.62820       -5.35830       -1.39511
H         -0.52540       -5.04892       -3.14006
H         -2.79099       -3.46867       -2.36146
H         -2.21299       -1.82575       -2.35025
H         -1.83342       -4.45763       -6.98843
H         -1.75065       -1.83619       -7.50878

--Link1--
%chk=JID_4830.chk
%mem=8GB
%nprocshared=4
# B3LYP/6-311++G(d,p) empiricaldispersion=gd3bj scf=xqc pop=npa geom=check

CID_112581291_JID_4830_Energie_neutraal

0 1

--Link1--
%chk=JID_4830.chk
%mem=8GB
%nprocshared=4
# B3LYP/6-311++G(d,p) empiricaldispersion=gd3bj scf=xqc pop=npa geom=check

CID_112581291_JID_4830_Energie_kation

1 2

--Link1--
%chk=JID_4830.chk
%mem=8GB
%nprocshared=4
# B3LYP/6-311++G(d,p) empiricaldispersion=gd3bj scf=xqc pop=npa geom=check

CID_112581291_JID_4830_Energie_anion

-1 2
