%chk=JID_9996.chk
%mem=8GB
%nprocshared=4
# opt freq B3LYP/6-31G(d) empiricaldispersion=gd3bj scf=xqc

CID_79514493_JID_9996_neutraal

0 1
C          0.93469        0.01339       -0.07453
O          0.19147        1.01884       -0.75341
C          0.89274        2.10212       -1.20692
C          0.13292        3.03918       -1.90966
C          0.72525        4.19210       -2.42401
C          2.08984        4.41147       -2.24179
C          2.87264        3.47837       -1.54874
C          2.25692        2.33110       -1.02261
N          4.25124        3.66603       -1.33271
C          5.10319        3.70349       -2.53051
C          6.27200        4.59317       -2.04140
N          5.84118        5.23783       -0.77382
C          4.72313        4.63543       -0.48231
N          4.03664        4.91781        0.64659
C          5.59083        2.32026       -2.99301
C          6.10387        1.38156       -1.89223
C          5.96221       -0.00010       -2.51090
C          4.61789        0.07774       -3.21408
C          4.54885        1.49661       -3.77343
H          0.24069       -0.78734        0.19863
H          1.37253        0.40382        0.85004
H          1.70197       -0.41904       -0.72531
H         -0.93131        2.86859       -2.05467
H          0.12260        4.91746       -2.96411
H          2.53947        5.31929       -2.63653
H          2.87964        1.63266       -0.47265
H          4.61277        4.22264       -3.36489
H          7.18830        4.02401       -1.85238
H          6.50354        5.36318       -2.78529
H          4.35835        5.77368        1.08229
H          3.03014        4.86274        0.56653
H          6.42484        2.49244       -3.68999
H          7.14029        1.59586       -1.61467
H          5.49340        1.43801       -0.98482
H          5.99414       -0.79691       -1.76247
H          6.76337       -0.17701       -3.23803
H          3.80921       -0.07391       -2.48959
H          4.51255       -0.68097       -3.99510
H          3.53209        1.89164       -3.71363
H          4.81672        1.49027       -4.83720

--Link1--
%chk=JID_9996.chk
%mem=8GB
%nprocshared=4
# B3LYP/6-311++G(d,p) empiricaldispersion=gd3bj scf=xqc pop=npa geom=check

CID_79514493_JID_9996_Energie_neutraal

0 1

--Link1--
%chk=JID_9996.chk
%mem=8GB
%nprocshared=4
# B3LYP/6-311++G(d,p) empiricaldispersion=gd3bj scf=xqc pop=npa geom=check

CID_79514493_JID_9996_Energie_kation

1 2

--Link1--
%chk=JID_9996.chk
%mem=8GB
%nprocshared=4
# B3LYP/6-311++G(d,p) empiricaldispersion=gd3bj scf=xqc pop=npa geom=check

CID_79514493_JID_9996_Energie_anion

-1 2
