%chk=JID_2038.chk
%mem=8GB
%nprocshared=4
# opt freq B3LYP/6-31G(d) empiricaldispersion=gd3bj scf=xqc

CID_153961916_JID_2038_neutraal

0 1
C          0.93800        0.07629       -0.01830
S         -0.75102       -0.18339        0.56994
O         -0.41234       -1.01348        1.97657
C         -0.21647       -0.26395        3.10502
O         -0.18355        0.95849        3.17423
O         -0.03609       -1.14924        4.16040
C          0.15004       -0.54004        5.40434
C          1.40174       -0.64782        6.00719
C          1.59735       -0.09751        7.27340
C          0.54124        0.53928        7.92935
C         -0.71492        0.62253        7.32422
C         -0.91782        0.07349        6.05864
H          0.91451        0.59881       -0.97792
H          1.44094       -0.88504       -0.15143
H          1.50130        0.67996        0.69791
H          2.21768       -1.15303        5.49978
H          2.57069       -0.16629        7.75227
H          0.69610        0.96859        8.91630
H         -1.53515        1.11454        7.84068
H         -1.89634        0.13193        5.59180

--Link1--
%chk=JID_2038.chk
%mem=8GB
%nprocshared=4
# B3LYP/6-311++G(d,p) empiricaldispersion=gd3bj scf=xqc pop=npa geom=check

CID_153961916_JID_2038_Energie_neutraal

0 1

--Link1--
%chk=JID_2038.chk
%mem=8GB
%nprocshared=4
# B3LYP/6-311++G(d,p) empiricaldispersion=gd3bj scf=xqc pop=npa geom=check

CID_153961916_JID_2038_Energie_kation

1 2

--Link1--
%chk=JID_2038.chk
%mem=8GB
%nprocshared=4
# B3LYP/6-311++G(d,p) empiricaldispersion=gd3bj scf=xqc pop=npa geom=check

CID_153961916_JID_2038_Energie_anion

-1 2
