%chk=JID_10165.chk
%mem=8GB
%nprocshared=4
# opt freq B3LYP/6-31G(d) empiricaldispersion=gd3bj scf=xqc

CID_64661487_JID_10165_neutraal

0 1
C          2.49200        0.00400       -0.01400
C          0.98773       -0.07643        0.01660
C          0.30365       -1.31305        0.01565
C         -1.10144       -1.32853        0.01352
C         -1.81654       -0.12615        0.04916
C         -1.14569        1.10006        0.08283
C          0.24987        1.11967        0.06776
N         -3.28378       -0.15221        0.05724
O         -3.84143       -1.25628        0.13100
O         -3.87963        0.93291       -0.00402
C          1.00286       -2.59943       -0.01983
N          1.02775       -3.40461       -1.05897
C          1.75858       -4.54561       -0.76820
C          2.26440       -4.59819        0.52108
S          1.79344       -3.19012        1.38428
C          3.08544       -5.65435        1.18183
C          4.54781       -5.31279        1.06921
O          5.21896       -4.71487        1.89521
O          5.10100       -5.71884       -0.09210
C          1.90536       -5.57025       -1.83622
H          2.90230       -0.20054        0.97941
H          2.90985       -0.70278       -0.73803
H          2.82710        1.00118       -0.32001
H         -1.62133       -2.28570       -0.01756
H         -1.68869        2.04267        0.11529
H          0.76315        2.08025        0.08629
H          2.83571       -5.75971        2.24391
H          2.91213       -6.63845        0.73189
H          6.02659       -5.39844       -0.03890
H          1.18284       -6.37790       -1.68397
H          1.72582       -5.13095       -2.82266
H          2.91164       -5.99866       -1.83958

--Link1--
%chk=JID_10165.chk
%mem=8GB
%nprocshared=4
# B3LYP/6-311++G(d,p) empiricaldispersion=gd3bj scf=xqc pop=npa geom=check

CID_64661487_JID_10165_Energie_neutraal

0 1

--Link1--
%chk=JID_10165.chk
%mem=8GB
%nprocshared=4
# B3LYP/6-311++G(d,p) empiricaldispersion=gd3bj scf=xqc pop=npa geom=check

CID_64661487_JID_10165_Energie_kation

1 2

--Link1--
%chk=JID_10165.chk
%mem=8GB
%nprocshared=4
# B3LYP/6-311++G(d,p) empiricaldispersion=gd3bj scf=xqc pop=npa geom=check

CID_64661487_JID_10165_Energie_anion

-1 2
