%chk=JID_4020.chk
%mem=8GB
%nprocshared=4
# opt freq B3LYP/6-31G(d) empiricaldispersion=gd3bj scf=xqc

CID_103246407_JID_4020_neutraal

0 1
C         -2.38400        0.00700       -0.11600
N         -0.96591        0.03514        0.24067
C         -0.27840       -1.15578       -0.27049
C          1.19335       -1.16067        0.15027
C          1.93483        0.11243       -0.28903
C          1.13350        1.33704        0.18221
C         -0.33807        1.27374       -0.23327
C          2.19352        0.10093       -1.80744
N          3.13026        1.15265       -2.17668
C          4.01015        1.08044       -3.23161
C          4.70190        2.09805       -3.75811
C          5.64347        1.95950       -4.87574
O          6.26417        2.88578       -5.36745
O          5.78007        0.70499       -5.33107
H         -2.53741        0.02041       -1.20113
H         -2.86553       -0.88977        0.28953
H         -2.90751        0.86646        0.31734
H         -0.74977       -2.05764        0.13921
H         -0.35941       -1.21958       -1.36293
H          1.68942       -2.05163       -0.25267
H          1.25015       -1.24416        1.24397
H          2.90954        0.12810        0.21721
H          1.57880        2.26755       -0.18503
H          1.18712        1.38836        1.27836
H         -0.42962        1.37166       -1.32204
H         -0.85029        2.13721        0.20897
H          2.61415       -0.87270       -2.08844
H          1.27004        0.22780       -2.38116
H          2.88486        2.09461       -1.88285
H          4.12507        0.07191       -3.62767
H          4.60434        3.10476       -3.37151
H          6.43793        0.79047       -6.05144

--Link1--
%chk=JID_4020.chk
%mem=8GB
%nprocshared=4
# B3LYP/6-311++G(d,p) empiricaldispersion=gd3bj scf=xqc pop=npa geom=check

CID_103246407_JID_4020_Energie_neutraal

0 1

--Link1--
%chk=JID_4020.chk
%mem=8GB
%nprocshared=4
# B3LYP/6-311++G(d,p) empiricaldispersion=gd3bj scf=xqc pop=npa geom=check

CID_103246407_JID_4020_Energie_kation

1 2

--Link1--
%chk=JID_4020.chk
%mem=8GB
%nprocshared=4
# B3LYP/6-311++G(d,p) empiricaldispersion=gd3bj scf=xqc pop=npa geom=check

CID_103246407_JID_4020_Energie_anion

-1 2
