%chk=JID_9342.chk
%mem=8GB
%nprocshared=4
# opt freq B3LYP/6-31G(d) empiricaldispersion=gd3bj scf=xqc

CID_14116451_JID_9342_neutraal

0 1
C          1.34400       -0.22500        0.03600
C          0.89425        0.98015       -0.49864
C         -0.46219        1.15987       -0.77551
C         -1.38696        0.13373       -0.52438
C         -0.91954       -1.07121        0.02314
C          0.43756       -1.24949        0.29894
C         -2.86463        0.30588       -0.80950
C         -3.67309        0.82884        0.38665
C         -3.32773        2.24587        0.84924
N         -3.57004        3.24063       -0.17878
C         -3.80401        4.58372       -0.04347
O         -4.09378        5.27514       -1.01504
C         -3.73693        5.20560        1.29586
C         -4.83489        5.94774        1.74230
C         -4.79335        6.56256        2.99402
C         -3.65184        6.44833        3.78916
C         -2.54608        5.72885        3.33211
C         -2.58316        5.11169        2.08078
O         -3.07764        1.13953       -1.95012
H          2.40045       -0.36420        0.25041
H          1.59954        1.78276       -0.69964
H         -0.79459        2.11315       -1.18410
H         -1.61082       -1.88402        0.23697
H          0.78796       -2.18892        0.71912
H         -3.27247       -0.67448       -1.08694
H         -4.73579        0.81722        0.11045
H         -3.55271        0.14577        1.23647
H         -3.93913        2.49398        1.72361
H         -2.27885        2.31635        1.15025
H         -3.58646        2.90886       -1.14299
H         -5.71678        6.04693        1.11358
H         -5.64695        7.13700        3.34488
H         -3.61921        6.93325        4.76195
H         -1.65196        5.65958        3.94651
H         -1.70978        4.57934        1.71535
H         -2.45166        0.83976       -2.63411

--Link1--
%chk=JID_9342.chk
%mem=8GB
%nprocshared=4
# B3LYP/6-311++G(d,p) empiricaldispersion=gd3bj scf=xqc pop=npa geom=check

CID_14116451_JID_9342_Energie_neutraal

0 1

--Link1--
%chk=JID_9342.chk
%mem=8GB
%nprocshared=4
# B3LYP/6-311++G(d,p) empiricaldispersion=gd3bj scf=xqc pop=npa geom=check

CID_14116451_JID_9342_Energie_kation

1 2

--Link1--
%chk=JID_9342.chk
%mem=8GB
%nprocshared=4
# B3LYP/6-311++G(d,p) empiricaldispersion=gd3bj scf=xqc pop=npa geom=check

CID_14116451_JID_9342_Energie_anion

-1 2
