%chk=JID_4186.chk
%mem=8GB
%nprocshared=4
# opt freq B3LYP/6-31G(d) empiricaldispersion=gd3bj scf=xqc

CID_67428401_JID_4186_neutraal

0 1
C          0.94051       -0.06294       -0.04999
C          1.14069       -1.51426       -0.46321
C          0.83296       -2.52037        0.65279
C         -0.59496       -2.42817        1.19228
O         -1.50455       -2.66817        0.11541
C         -2.53849       -1.76479        0.02551
C         -2.98991       -1.41956       -1.26841
C         -4.05225       -0.49487       -1.51429
C         -4.77606        0.15800       -0.49578
C         -4.33041       -0.23058        0.76221
C         -4.82498        0.20098        1.95497
O         -4.13710       -0.41507        2.94973
N         -3.17912       -1.26070        2.41603
C         -3.26661       -1.15635        1.07495
H         -0.11207        0.16550        0.13768
H          1.28276        0.60333       -0.84853
H          1.51343        0.16981        0.85310
H          0.52294       -1.72692       -1.34337
H          2.18324       -1.65114       -0.77453
H          0.99825       -3.52726        0.24995
H          1.54033       -2.38116        1.47856
H         -0.75342       -3.20375        1.94962
H         -0.72392       -1.45250        1.67186
H         -2.49089       -1.87331       -2.12511
H         -4.31390       -0.28570       -2.55272
H         -5.57663        0.85736       -0.69390
H         -5.60023        0.88252        2.27012

--Link1--
%chk=JID_4186.chk
%mem=8GB
%nprocshared=4
# B3LYP/6-311++G(d,p) empiricaldispersion=gd3bj scf=xqc pop=npa geom=check

CID_67428401_JID_4186_Energie_neutraal

0 1

--Link1--
%chk=JID_4186.chk
%mem=8GB
%nprocshared=4
# B3LYP/6-311++G(d,p) empiricaldispersion=gd3bj scf=xqc pop=npa geom=check

CID_67428401_JID_4186_Energie_kation

1 2

--Link1--
%chk=JID_4186.chk
%mem=8GB
%nprocshared=4
# B3LYP/6-311++G(d,p) empiricaldispersion=gd3bj scf=xqc pop=npa geom=check

CID_67428401_JID_4186_Energie_anion

-1 2
