%chk=JID_5022.chk
%mem=8GB
%nprocshared=4
# opt freq B3LYP/6-31G(d) empiricaldispersion=gd3bj scf=xqc

CID_106959473_JID_5022_neutraal

0 1
C          1.02580       -0.05876       -0.07669
N          0.37850       -0.46044        1.16470
C         -1.08504       -0.30309        1.10744
C         -1.76498       -1.27254        0.20463
N         -2.01221       -2.55221        0.38200
N         -2.64465       -2.97819       -0.76735
C         -2.72301       -1.93973       -1.57531
O         -2.18029       -0.81340       -1.01500
N         -3.26101       -1.83740       -2.82006
C         -3.55872       -3.11646       -3.47841
C         -4.53649       -2.90785       -4.63370
C         -4.05123       -1.82559       -5.59758
C         -3.71926       -0.53135       -4.85598
C         -2.72990       -0.78631       -3.70584
O         -4.92670        0.03191       -4.33207
H          0.79983        0.98387       -0.32255
H          0.73676       -0.69655       -0.91786
H          2.11109       -0.13888        0.04056
H          0.58994       -1.44118        1.35766
H         -1.47452       -0.45423        2.12089
H         -1.34426        0.72658        0.83390
H         -2.62989       -3.56792       -3.85037
H         -4.01425       -3.82675       -2.77686
H         -5.51870       -2.62708       -4.23362
H         -4.67425       -3.85036       -5.17562
H         -4.83222       -1.64196       -6.34440
H         -3.16064       -2.18364       -6.12780
H         -3.29853        0.19949       -5.55427
H         -2.60421        0.15584       -3.15867
H         -1.75289       -1.08939       -4.10188
H         -5.10468       -0.44011       -3.49469

--Link1--
%chk=JID_5022.chk
%mem=8GB
%nprocshared=4
# B3LYP/6-311++G(d,p) empiricaldispersion=gd3bj scf=xqc pop=npa geom=check

CID_106959473_JID_5022_Energie_neutraal

0 1

--Link1--
%chk=JID_5022.chk
%mem=8GB
%nprocshared=4
# B3LYP/6-311++G(d,p) empiricaldispersion=gd3bj scf=xqc pop=npa geom=check

CID_106959473_JID_5022_Energie_kation

1 2

--Link1--
%chk=JID_5022.chk
%mem=8GB
%nprocshared=4
# B3LYP/6-311++G(d,p) empiricaldispersion=gd3bj scf=xqc pop=npa geom=check

CID_106959473_JID_5022_Energie_anion

-1 2
