%chk=JID_6689.chk
%mem=8GB
%nprocshared=4
# opt freq B3LYP/6-31G(d) empiricaldispersion=gd3bj scf=xqc

CID_112429971_JID_6689_neutraal

0 1
C          1.04284       -0.02525       -0.08676
C          0.42624       -0.17486        1.29404
N          0.43606        1.11534        1.97396
C         -0.19910        1.30177        3.16705
N          0.21495        1.92282        4.21198
C          1.51433        2.59067        4.26733
C          2.49867        1.77321        5.12133
C          2.89674        0.45143        4.46675
S          3.99671        2.75298        5.57632
C          4.71632        3.09069        3.95020
N         -1.44232        0.74836        3.26233
C         -2.50420        1.19531        2.36053
C         -3.71464        0.26647        2.45511
C         -4.52011        0.43314        3.74389
O         -5.69164        1.22826        3.55424
C         -5.44105        2.62438        3.50149
H          0.47852        0.69253       -0.69152
H          1.04640       -0.98680       -0.60921
H          2.07618        0.33159       -0.02056
H         -0.58878       -0.56892        1.18465
H          1.00469       -0.89865        1.87882
H          1.35923        1.52425        1.94814
H          1.92326        2.81210        3.27793
H          1.34447        3.56577        4.74082
H          2.01318        1.53616        6.07592
H          3.29120        0.59421        3.45583
H          3.64829       -0.08021        5.06080
H          2.02980       -0.21299        4.38555
H          4.97751        2.16460        3.43386
H          4.03797        3.68576        3.33520
H          5.63518        3.66751        4.08931
H         -1.73022        0.88404        4.22886
H         -2.77166        2.22950        2.59772
H         -2.14993        1.18592        1.32378
H         -4.36522        0.44107        1.59000
H         -3.35859       -0.76967        2.39231
H         -4.88653       -0.55515        4.04366
H         -3.92929        0.81586        4.58290
H         -4.83596        2.94879        4.35330
H         -4.95229        2.88939        2.56073
H         -6.40207        3.14480        3.54004

--Link1--
%chk=JID_6689.chk
%mem=8GB
%nprocshared=4
# B3LYP/6-311++G(d,p) empiricaldispersion=gd3bj scf=xqc pop=npa geom=check

CID_112429971_JID_6689_Energie_neutraal

0 1

--Link1--
%chk=JID_6689.chk
%mem=8GB
%nprocshared=4
# B3LYP/6-311++G(d,p) empiricaldispersion=gd3bj scf=xqc pop=npa geom=check

CID_112429971_JID_6689_Energie_kation

1 2

--Link1--
%chk=JID_6689.chk
%mem=8GB
%nprocshared=4
# B3LYP/6-311++G(d,p) empiricaldispersion=gd3bj scf=xqc pop=npa geom=check

CID_112429971_JID_6689_Energie_anion

-1 2
