%chk=JID_9705.chk
%mem=8GB
%nprocshared=4
# opt freq B3LYP/6-31G(d) empiricaldispersion=gd3bj scf=xqc

CID_64764235_JID_9705_neutraal

0 1
C          2.54100        1.06400        0.00800
C          1.34106        0.17307        0.12215
C          0.11357        0.56104       -0.42848
C         -1.01959       -0.25932       -0.31425
C         -0.91096       -1.49026        0.35196
C          0.29676       -1.85467        0.94790
C          1.41701       -1.02888        0.83101
O         -2.04563       -2.25375        0.42436
C         -1.88899       -3.67030        0.22852
C         -1.48893       -4.02081       -1.21736
C         -1.98940       -5.43187       -1.59283
N         -1.55250       -5.92059       -2.91438
C         -0.11795       -5.65787       -3.11516
C          0.35870       -4.26707       -2.66416
O         -0.05183       -3.98834       -1.32315
C         -2.45638       -5.60642       -4.02915
C         -2.30150       -4.23477       -4.68886
C         -2.32936       -6.70357       -5.09709
C         -2.32141        0.16983       -0.92934
H          2.51697        1.63378       -0.92689
H          2.56901        1.76410        0.84860
H          3.46538        0.47680        0.00555
H          0.04013        1.51011       -0.95573
H          0.39237       -2.77792        1.50840
H          2.35137       -1.33642        1.29444
H         -1.20654       -4.10159        0.96845
H         -2.88094       -4.08640        0.43864
H         -1.90526       -3.26480       -1.89110
H         -1.59034       -6.14170       -0.85528
H         -3.08037       -5.48964       -1.49789
H          0.41787       -6.39940       -2.50789
H          0.19322       -5.84334       -4.14844
H          1.45292       -4.23282       -2.68447
H         -0.00153       -3.47091       -3.32306
H         -3.48980       -5.67659       -3.66459
H         -1.32138       -4.11327       -5.16059
H         -3.05401       -4.10758       -5.47582
H         -2.45163       -3.42140       -3.97581
H         -2.47142       -7.69747       -4.65779
H         -3.09582       -6.57615       -5.86985
H         -1.35377       -6.68664       -5.59386
H         -3.11384        0.18359       -0.17397
H         -2.25343        1.17772       -1.35212
H         -2.60071       -0.51436       -1.73708

--Link1--
%chk=JID_9705.chk
%mem=8GB
%nprocshared=4
# B3LYP/6-311++G(d,p) empiricaldispersion=gd3bj scf=xqc pop=npa geom=check

CID_64764235_JID_9705_Energie_neutraal

0 1

--Link1--
%chk=JID_9705.chk
%mem=8GB
%nprocshared=4
# B3LYP/6-311++G(d,p) empiricaldispersion=gd3bj scf=xqc pop=npa geom=check

CID_64764235_JID_9705_Energie_kation

1 2

--Link1--
%chk=JID_9705.chk
%mem=8GB
%nprocshared=4
# B3LYP/6-311++G(d,p) empiricaldispersion=gd3bj scf=xqc pop=npa geom=check

CID_64764235_JID_9705_Energie_anion

-1 2
