%chk=JID_7707.chk
%mem=8GB
%nprocshared=4
# opt freq B3LYP/6-31G(d) empiricaldispersion=gd3bj scf=xqc

CID_136986781_JID_7707_neutraal

0 1
C          0.92184        0.04972       -0.03766
C          1.20359       -0.25528        1.42319
O          2.33953       -1.10808        1.56113
C          2.04603       -2.49485        1.38279
C          1.51381       -3.13001        2.66994
O          1.15224       -4.49571        2.47376
C         -0.09929       -4.67612        1.92657
N         -0.85402       -3.60709        1.61506
C         -2.06032       -3.84688        1.06506
C         -2.51805       -5.12393        0.83089
C         -1.65917       -6.14345        1.18727
N         -0.44587       -5.94775        1.73788
C         -2.07482       -7.57281        0.96998
N         -1.15483       -8.48644        0.82634
O         -1.72628       -9.75920        0.65318
N         -3.41940       -7.89476        0.92657
C         -2.89980       -2.65998        0.70110
H          1.81865        0.44066       -0.52920
H          0.11889        0.78696       -0.12904
H          0.62374       -0.84995       -0.58394
H          1.44500        0.68025        1.93838
H          0.32177       -0.67996        1.91357
H          1.37653       -2.64984        0.53109
H          2.98437       -2.99331        1.11298
H          2.32018       -3.11836        3.41379
H          0.70699       -2.55144        3.13659
H         -3.47910       -5.31451        0.37273
H         -0.93236      -10.31507        0.53770
H         -3.95378       -7.52270        1.70379
H         -3.49082       -8.91225        0.90535
H         -2.38640       -1.72712        0.95633
H         -3.10095       -2.65435       -0.37466
H         -3.84905       -2.68641        1.24512

--Link1--
%chk=JID_7707.chk
%mem=8GB
%nprocshared=4
# B3LYP/6-311++G(d,p) empiricaldispersion=gd3bj scf=xqc pop=npa geom=check

CID_136986781_JID_7707_Energie_neutraal

0 1

--Link1--
%chk=JID_7707.chk
%mem=8GB
%nprocshared=4
# B3LYP/6-311++G(d,p) empiricaldispersion=gd3bj scf=xqc pop=npa geom=check

CID_136986781_JID_7707_Energie_kation

1 2

--Link1--
%chk=JID_7707.chk
%mem=8GB
%nprocshared=4
# B3LYP/6-311++G(d,p) empiricaldispersion=gd3bj scf=xqc pop=npa geom=check

CID_136986781_JID_7707_Energie_anion

-1 2
