%chk=JID_3583.chk
%mem=8GB
%nprocshared=4
# opt freq B3LYP/6-31G(d) empiricaldispersion=gd3bj scf=xqc

CID_79643044_JID_3583_neutraal

0 1
C         -1.50200        0.71300        0.14900
C         -1.28198       -0.75032        0.53323
N          0.07377       -1.14739        0.88083
C          1.03662       -1.19234       -0.20542
C          1.85565        0.06319       -0.52725
S          1.01553        1.68187       -0.50468
C         -0.66219        1.21413       -1.01966
C          0.40969       -1.26113        2.29507
C          0.65492        0.06286        3.03401
C          2.15654        0.30750        3.02734
C          2.71083       -1.07590        2.83342
O          3.90744       -1.33809        2.85852
C          1.63882       -2.10974        2.64549
H         -1.38375        1.36469        1.02212
H         -2.55721        0.80724       -0.14141
H         -1.96880       -0.98807        1.35597
H         -1.62939       -1.38214       -0.29540
H          0.51205       -1.48781       -1.12505
H          1.73900       -2.02023       -0.05895
H          2.28880       -0.05389       -1.52741
H          2.70637        0.13357        0.15548
H         -0.63592        0.50349       -1.85170
H         -1.12421        2.12969       -1.40545
H         -0.44558       -1.75962        2.77117
H          0.31677       -0.04514        4.07351
H          0.10527        0.91276        2.62394
H          2.49455        0.72631        3.97860
H          2.46640        0.95366        2.20631
H          1.90824       -2.85088        1.89184
H          1.49053       -2.61930        3.60422

--Link1--
%chk=JID_3583.chk
%mem=8GB
%nprocshared=4
# B3LYP/6-311++G(d,p) empiricaldispersion=gd3bj scf=xqc pop=npa geom=check

CID_79643044_JID_3583_Energie_neutraal

0 1

--Link1--
%chk=JID_3583.chk
%mem=8GB
%nprocshared=4
# B3LYP/6-311++G(d,p) empiricaldispersion=gd3bj scf=xqc pop=npa geom=check

CID_79643044_JID_3583_Energie_kation

1 2

--Link1--
%chk=JID_3583.chk
%mem=8GB
%nprocshared=4
# B3LYP/6-311++G(d,p) empiricaldispersion=gd3bj scf=xqc pop=npa geom=check

CID_79643044_JID_3583_Energie_anion

-1 2
