%chk=JID_9044.chk
%mem=8GB
%nprocshared=4
# opt freq B3LYP/6-31G(d) empiricaldispersion=gd3bj scf=xqc

CID_18355471_JID_9044_neutraal

0 1
C          0.98699       -0.06658       -0.07347
C          0.17616        0.10721        1.23782
C          0.49628        1.51659        1.76136
C         -1.30475       -0.02723        0.86746
C          0.66266       -0.99468        2.21730
O          1.34676       -1.94222        1.80607
N          0.46439       -0.96220        3.56614
C         -0.35795       -0.18979        4.38809
C          0.18935        0.31527        5.56907
C         -0.58408        1.10176        6.42685
C         -1.93228        1.34609        6.14282
C         -2.49475        0.76619        4.99959
C         -1.71174       -0.00154        4.13239
C         -2.77632        2.19852        7.05756
C         -3.51168        1.40082        8.14187
C         -2.60712        0.86111        9.24946
C         -1.94669        1.97213       10.01800
O         -2.49142        2.96462       10.47102
O         -0.62437        1.78186       10.18028
H          0.74387        0.71427       -0.80365
H          0.77949       -1.03434       -0.54566
H          2.06589       -0.01566        0.11640
H          0.37136        2.26979        0.97478
H         -0.15722        1.81631        2.58419
H          1.52912        1.57744        2.12332
H         -1.64356       -1.06640        0.93685
H         -1.94615        0.59068        1.50044
H         -1.49678        0.31324       -0.15718
H          1.14777       -1.54391        4.03883
H          1.23524        0.14458        5.81204
H         -0.12224        1.52133        7.31809
H         -3.55163        0.90106        4.77849
H         -2.19660       -0.50108        3.30224
H         -2.15865        2.98950        7.49966
H         -3.52137        2.72488        6.44614
H         -4.26828        2.05619        8.59176
H         -4.05374        0.56271        7.68685
H         -3.19578        0.27562        9.96453
H         -1.84896        0.18790        8.83732
H         -0.33456        2.56243       10.69843

--Link1--
%chk=JID_9044.chk
%mem=8GB
%nprocshared=4
# B3LYP/6-311++G(d,p) empiricaldispersion=gd3bj scf=xqc pop=npa geom=check

CID_18355471_JID_9044_Energie_neutraal

0 1

--Link1--
%chk=JID_9044.chk
%mem=8GB
%nprocshared=4
# B3LYP/6-311++G(d,p) empiricaldispersion=gd3bj scf=xqc pop=npa geom=check

CID_18355471_JID_9044_Energie_kation

1 2

--Link1--
%chk=JID_9044.chk
%mem=8GB
%nprocshared=4
# B3LYP/6-311++G(d,p) empiricaldispersion=gd3bj scf=xqc pop=npa geom=check

CID_18355471_JID_9044_Energie_anion

-1 2
