%chk=JID_9439.chk
%mem=8GB
%nprocshared=4
# opt freq B3LYP/6-31G(d) empiricaldispersion=gd3bj scf=xqc

CID_134862105_JID_9439_neutraal

0 1
C          1.34400       -0.22500        0.03600
C          0.95010        1.11325        0.06492
C         -0.35673        1.46435       -0.27604
C         -1.26960        0.47485       -0.65122
C         -0.86563       -0.86516       -0.68615
C          0.43941       -1.21447       -0.34188
C         -2.65653        0.80426       -0.97149
C         -3.53586        1.07998        0.00373
C         -4.96629        1.27498       -0.20165
C         -5.63572        0.55185       -1.11978
C         -6.01566       -0.75859       -0.55314
C         -6.04298       -1.91470       -1.33300
C         -6.39421       -3.13136       -0.74423
C         -6.72588       -3.19060        0.61290
C         -6.70889       -2.03220        1.39242
C         -6.34697       -0.81670        0.80735
C         -6.30493        0.43667        1.61001
O         -6.83185        0.50568        2.71291
O         -5.61656        1.49062        1.05119
H          2.36158       -0.49545        0.30692
H          1.65989        1.88254        0.35772
H         -0.65772        2.50856       -0.24292
H         -1.57005       -1.64477       -0.96663
H          0.74771       -2.25620       -0.36247
H         -2.94387        0.72656       -2.01553
H         -3.19403        1.12405        1.03771
H         -6.56842        0.98497       -1.49636
H         -5.78188       -1.87928       -2.38772
H         -6.40743       -4.03883       -1.34410
H         -6.99623       -4.14291        1.06384
H         -6.96634       -2.08022        2.44814

--Link1--
%chk=JID_9439.chk
%mem=8GB
%nprocshared=4
# B3LYP/6-311++G(d,p) empiricaldispersion=gd3bj scf=xqc pop=npa geom=check

CID_134862105_JID_9439_Energie_neutraal

0 1

--Link1--
%chk=JID_9439.chk
%mem=8GB
%nprocshared=4
# B3LYP/6-311++G(d,p) empiricaldispersion=gd3bj scf=xqc pop=npa geom=check

CID_134862105_JID_9439_Energie_kation

1 2

--Link1--
%chk=JID_9439.chk
%mem=8GB
%nprocshared=4
# B3LYP/6-311++G(d,p) empiricaldispersion=gd3bj scf=xqc pop=npa geom=check

CID_134862105_JID_9439_Energie_anion

-1 2
