%chk=JID_4436.chk
%mem=8GB
%nprocshared=4
# opt freq B3LYP/6-31G(d) empiricaldispersion=gd3bj scf=xqc

CID_142989641_JID_4436_neutraal

0 1
C          1.08551        0.02330       -0.04631
C          0.76924        0.20510        1.42089
C          1.49499       -3.73104        0.52007
C          0.45223       -4.15392       -0.50688
C         -0.32266       -5.41505       -0.09323
C         -1.31798       -5.26362        1.07088
C         -2.68983       -4.69697        0.73841
O         -3.57282       -5.46196        0.33756
N         -2.94872       -3.34287        0.90879
C         -1.98669       -2.32346        1.29079
C         -4.29063       -2.85920        0.57352
C         -4.43434       -2.52233       -0.90235
O         -0.88185       -6.13402       -1.19838
C         -1.51670       -5.36573       -2.20952
H          0.94050        0.96224       -0.58893
H          0.43391       -0.73383       -0.49146
H          2.12430       -0.29278       -0.17948
H          1.42201        0.96340        1.86343
H         -0.26866        0.52470        1.55353
H          0.91328       -0.73291        1.96501
H          2.22327       -4.53167        0.68617
H          1.04895       -3.47624        1.48367
H          2.04349       -2.85566        0.15996
H         -0.23475       -3.32611       -0.70819
H          0.97788       -4.34586       -1.45056
H          0.43766       -6.11062        0.28801
H         -1.52827       -6.27433        1.45182
H         -0.87309       -4.74589        1.92359
H         -1.80212       -1.67691        0.42850
H         -2.40640       -1.72596        2.10571
H         -1.04289       -2.73799        1.63001
H         -5.03035       -3.62221        0.84206
H         -4.51171       -1.97771        1.18604
H         -4.27474       -3.40620       -1.52751
H         -5.43963       -2.14112       -1.10702
H         -3.71039       -1.76038       -1.20751
H         -2.13281       -4.56301       -1.80286
H         -0.76575       -4.94311       -2.88317
H         -2.15441       -6.03307       -2.79556

--Link1--
%chk=JID_4436.chk
%mem=8GB
%nprocshared=4
# B3LYP/6-311++G(d,p) empiricaldispersion=gd3bj scf=xqc pop=npa geom=check

CID_142989641_JID_4436_Energie_neutraal

0 1

--Link1--
%chk=JID_4436.chk
%mem=8GB
%nprocshared=4
# B3LYP/6-311++G(d,p) empiricaldispersion=gd3bj scf=xqc pop=npa geom=check

CID_142989641_JID_4436_Energie_kation

1 2

--Link1--
%chk=JID_4436.chk
%mem=8GB
%nprocshared=4
# B3LYP/6-311++G(d,p) empiricaldispersion=gd3bj scf=xqc pop=npa geom=check

CID_142989641_JID_4436_Energie_anion

-1 2
