%chk=JID_10471.chk
%mem=8GB
%nprocshared=4
# opt freq B3LYP/6-31G(d) empiricaldispersion=gd3bj scf=xqc

CID_64464115_JID_10471_neutraal

0 1
C          2.54100        1.06400        0.00800
C          1.24979        0.30063       -0.00488
C          0.21324        0.66273       -0.87287
C         -1.00777       -0.03690       -0.89053
C         -1.20665       -1.10500        0.01042
C         -0.16703       -1.44499        0.89478
C          1.04440       -0.75125        0.88891
C         -2.48765       -1.91873        0.05193
N         -3.63819       -1.10317        0.44874
C         -4.82875       -1.90359        0.73239
C         -5.66839       -2.43935       -0.48793
C         -7.12519       -2.02494       -0.07939
C         -7.35103       -0.51338       -0.26597
C         -6.43327        0.10261        0.79730
C         -5.90805       -1.13335        1.56656
C         -7.09578       -2.09856        1.45132
C         -5.49848       -0.81917        2.99461
C         -5.28413       -1.87718       -1.86758
C         -5.55550       -3.97553       -0.57090
C         -2.08018        0.40834       -1.84792
H          2.71457        1.56218       -0.95160
H          2.52010        1.82147        0.79755
H          3.38667        0.39032        0.18184
H          0.35861        1.50066       -1.55313
H         -0.29265       -2.26380        1.60048
H          1.82704       -1.04008        1.58624
H         -2.63300       -2.37765       -0.93009
H         -2.35801       -2.74541        0.76203
H         -3.36937       -0.58080        1.28195
H         -4.52001       -2.75538        1.35692
H         -7.90482       -2.63119       -0.54784
H         -7.14230       -0.14341       -1.27223
H         -8.39536       -0.25943       -0.04486
H         -5.63094        0.69609        0.34831
H         -7.01485        0.76782        1.44626
H         -8.01118       -1.71716        1.91850
H         -6.88943       -3.09789        1.84631
H         -6.34232       -0.41436        3.56410
H         -5.15232       -1.71921        3.51357
H         -4.69325       -0.07845        3.02593
H         -4.37086       -2.33965       -2.25431
H         -6.07383       -2.08206       -2.59991
H         -5.11616       -0.79635       -1.85030
H         -5.85692       -4.46454        0.36088
H         -6.19379       -4.37152       -1.36881
H         -4.52476       -4.28160       -0.78185
H         -2.86540        0.95171       -1.31360
H         -1.67470        1.07728       -2.61497
H         -2.51317       -0.44675       -2.37470

--Link1--
%chk=JID_10471.chk
%mem=8GB
%nprocshared=4
# B3LYP/6-311++G(d,p) empiricaldispersion=gd3bj scf=xqc pop=npa geom=check

CID_64464115_JID_10471_Energie_neutraal

0 1

--Link1--
%chk=JID_10471.chk
%mem=8GB
%nprocshared=4
# B3LYP/6-311++G(d,p) empiricaldispersion=gd3bj scf=xqc pop=npa geom=check

CID_64464115_JID_10471_Energie_kation

1 2

--Link1--
%chk=JID_10471.chk
%mem=8GB
%nprocshared=4
# B3LYP/6-311++G(d,p) empiricaldispersion=gd3bj scf=xqc pop=npa geom=check

CID_64464115_JID_10471_Energie_anion

-1 2
