%chk=JID_3356.chk
%mem=8GB
%nprocshared=4
# opt freq B3LYP/6-31G(d) empiricaldispersion=gd3bj scf=xqc

CID_105298505_JID_3356_neutraal

0 1
C          0.94740        0.07485       -0.04039
C          0.48732        1.52679       -0.05452
C          0.98447        2.32434       -1.27655
C          0.48449        1.70851       -2.59046
C          0.53770        3.80702       -1.22136
C          1.05380        4.62841       -0.01640
C          2.56375        4.69804        0.02039
N          3.23347        3.87961        0.84798
S          4.85222        4.21686        0.59654
N          4.72816        5.39279       -0.58723
C          3.41519        5.54121       -0.77201
N          0.43058        5.98092       -0.10729
N          0.77138        6.80538        1.03347
H          0.48379       -0.50314       -0.84490
H          0.66533       -0.39756        0.90627
H          2.03502        0.00613       -0.14186
H         -0.60802        1.55627       -0.00773
H          0.85511        1.99038        0.86647
H          2.08032        2.28575       -1.29880
H         -0.60858        1.64108       -2.60592
H          0.79830        2.31304       -3.44845
H          0.89199        0.70443       -2.74181
H          0.86063        4.29796       -2.15080
H         -0.56123        3.83667       -1.22619
H          0.68550        4.16834        0.90871
H          3.09308        6.27445       -1.49772
H          0.69986        6.42154       -0.99103
H          0.23234        7.67740        1.02858
H          0.51252        6.34922        1.91550

--Link1--
%chk=JID_3356.chk
%mem=8GB
%nprocshared=4
# B3LYP/6-311++G(d,p) empiricaldispersion=gd3bj scf=xqc pop=npa geom=check

CID_105298505_JID_3356_Energie_neutraal

0 1

--Link1--
%chk=JID_3356.chk
%mem=8GB
%nprocshared=4
# B3LYP/6-311++G(d,p) empiricaldispersion=gd3bj scf=xqc pop=npa geom=check

CID_105298505_JID_3356_Energie_kation

1 2

--Link1--
%chk=JID_3356.chk
%mem=8GB
%nprocshared=4
# B3LYP/6-311++G(d,p) empiricaldispersion=gd3bj scf=xqc pop=npa geom=check

CID_105298505_JID_3356_Energie_anion

-1 2
