%chk=JID_9455.chk
%mem=8GB
%nprocshared=4
# opt freq B3LYP/6-31G(d) empiricaldispersion=gd3bj scf=xqc

CID_116951202_JID_9455_neutraal

0 1
C          0.93137       -0.04514       -0.05703
N          0.42804       -0.30299       -1.39671
C         -1.04308       -0.23652       -1.50235
C         -1.69458        1.18772       -1.25407
C         -0.95202        2.34004       -1.96452
C         -1.66761        3.67194       -1.74685
C         -1.86508        3.93289       -0.25802
C         -2.53557        2.74632        0.42771
N         -1.79924        1.50367        0.19326
C         -1.45656       -0.94081       -2.80864
C         -1.14487       -2.31651       -2.93223
C         -1.50844       -2.97744       -4.08478
C         -2.16145       -2.32520       -5.10375
C         -2.49158       -0.99461       -5.04546
C         -2.13273       -0.30146       -3.88025
N         -2.37091       -3.25401       -6.07997
C         -1.84545       -4.44669       -5.64080
O         -1.86565       -5.49178       -6.27459
O         -1.28221       -4.31474       -4.36515
H          0.44617       -0.68564        0.68639
H          0.82106        1.00184        0.23633
H          2.00160       -0.27421       -0.03001
H          0.84757        0.35040       -2.05421
H         -1.46343       -0.89390       -0.72514
H         -2.72517        1.14452       -1.63154
H         -0.86336        2.15368       -3.03890
H          0.07125        2.43403       -1.58079
H         -1.08840        4.48649       -2.19552
H         -2.64157        3.65219       -2.25086
H         -0.89139        4.12525        0.21033
H         -2.47114        4.83483       -0.11693
H         -2.57804        2.93344        1.50624
H         -3.57091        2.64217        0.08099
H         -2.27448        0.73810        0.67194
H         -0.61989       -2.84302       -2.14003
H         -3.00638       -0.49524       -5.85758
H         -2.39816        0.75045       -3.83137
H         -2.82023       -3.13359       -6.97182

--Link1--
%chk=JID_9455.chk
%mem=8GB
%nprocshared=4
# B3LYP/6-311++G(d,p) empiricaldispersion=gd3bj scf=xqc pop=npa geom=check

CID_116951202_JID_9455_Energie_neutraal

0 1

--Link1--
%chk=JID_9455.chk
%mem=8GB
%nprocshared=4
# B3LYP/6-311++G(d,p) empiricaldispersion=gd3bj scf=xqc pop=npa geom=check

CID_116951202_JID_9455_Energie_kation

1 2

--Link1--
%chk=JID_9455.chk
%mem=8GB
%nprocshared=4
# B3LYP/6-311++G(d,p) empiricaldispersion=gd3bj scf=xqc pop=npa geom=check

CID_116951202_JID_9455_Energie_anion

-1 2
