%chk=JID_6649.chk
%mem=8GB
%nprocshared=4
# opt freq B3LYP/6-31G(d) empiricaldispersion=gd3bj scf=xqc

CID_65599391_JID_6649_neutraal

0 1
C         -0.02900        0.88300        0.00000
C         -0.37995       -0.40968       -0.68318
C          0.86130       -0.32150        0.16639
C          2.22050       -0.35370       -0.47122
C          3.21903        0.56973        0.22010
C          3.73872       -0.02230        1.51748
O          4.67810       -0.82109        1.49190
C          3.08871        0.36804        2.75106
C          3.36872        0.02908        4.06246
C          2.39416        0.66628        4.87269
C          2.11097        0.72684        6.24811
C          1.00705        1.48012        6.67433
C          0.20045        2.16022        5.75740
C          0.47034        2.11705        4.38573
C          1.57334        1.36234        3.99493
O          2.00019        1.19524        2.71459
H         -0.62547        1.18867        0.85242
H          0.31128        1.70536       -0.61877
H         -1.22036       -0.97528       -0.29593
H         -0.27577       -0.45874       -1.76107
H          0.83869       -0.84067        1.11900
H          2.58660       -1.38731       -0.46665
H          2.14243       -0.05097       -1.52281
H          4.09146        0.70524       -0.43194
H          2.80737        1.57069        0.38604
H          4.17824       -0.61213        4.38385
H          2.72889        0.19992        6.96900
H          0.77471        1.53296        7.73615
H         -0.65244        2.73342        6.11536
H         -0.14405        2.63694        3.66112

--Link1--
%chk=JID_6649.chk
%mem=8GB
%nprocshared=4
# B3LYP/6-311++G(d,p) empiricaldispersion=gd3bj scf=xqc pop=npa geom=check

CID_65599391_JID_6649_Energie_neutraal

0 1

--Link1--
%chk=JID_6649.chk
%mem=8GB
%nprocshared=4
# B3LYP/6-311++G(d,p) empiricaldispersion=gd3bj scf=xqc pop=npa geom=check

CID_65599391_JID_6649_Energie_kation

1 2

--Link1--
%chk=JID_6649.chk
%mem=8GB
%nprocshared=4
# B3LYP/6-311++G(d,p) empiricaldispersion=gd3bj scf=xqc pop=npa geom=check

CID_65599391_JID_6649_Energie_anion

-1 2
