%chk=JID_2164.chk
%mem=8GB
%nprocshared=4
# opt freq B3LYP/6-31G(d) empiricaldispersion=gd3bj scf=xqc

CID_114958535_JID_2164_neutraal

0 1
C          1.00295       -0.09738       -0.02256
N          0.19089       -0.19582       -1.22096
C         -1.23805       -0.51448       -1.04091
C         -2.11391        0.74518       -0.90984
C         -2.18879        1.28305        0.51483
C         -2.58089        0.18733        1.50027
N         -1.60628       -0.93538        1.41948
C         -1.60470       -1.55021        0.05170
S         -1.77066       -2.08607        2.64026
O         -3.15886       -2.43416        2.79628
O         -0.73083       -3.07383        2.50757
N         -1.32910       -1.14943        3.94601
H          1.03707       -1.04044        0.53026
H          0.67799        0.70552        0.64147
H          2.03496        0.12609       -0.31343
H          0.29482        0.64923       -1.78007
H         -1.51762       -0.97703       -1.99706
H         -1.77175        1.53505       -1.58946
H         -3.13166        0.49108       -1.23592
H         -1.23021        1.72489        0.80386
H         -2.92799        2.09142        0.55825
H         -2.58584        0.61916        2.50611
H         -3.59254       -0.17321        1.27892
H         -2.60334       -1.95591       -0.15736
H         -0.89666       -2.38531        0.00538
H         -1.60083       -1.63362        4.80160
H         -0.31838       -1.01827        3.91226

--Link1--
%chk=JID_2164.chk
%mem=8GB
%nprocshared=4
# B3LYP/6-311++G(d,p) empiricaldispersion=gd3bj scf=xqc pop=npa geom=check

CID_114958535_JID_2164_Energie_neutraal

0 1

--Link1--
%chk=JID_2164.chk
%mem=8GB
%nprocshared=4
# B3LYP/6-311++G(d,p) empiricaldispersion=gd3bj scf=xqc pop=npa geom=check

CID_114958535_JID_2164_Energie_kation

1 2

--Link1--
%chk=JID_2164.chk
%mem=8GB
%nprocshared=4
# B3LYP/6-311++G(d,p) empiricaldispersion=gd3bj scf=xqc pop=npa geom=check

CID_114958535_JID_2164_Energie_anion

-1 2
