%chk=JID_10395.chk
%mem=8GB
%nprocshared=4
# opt freq B3LYP/6-31G(d) empiricaldispersion=gd3bj scf=xqc

CID_105758667_JID_10395_neutraal

0 1
C          1.09400       -1.21800       -0.04600
C          0.25845       -0.12632       -0.66170
C         -0.97163       -0.53882       -1.44269
C         -1.13525        0.18107       -0.12641
C         -1.76558       -0.51538        1.04485
N         -1.17531       -0.00326        2.27229
C         -1.77642       -0.08851        3.54278
C         -1.33932        0.65763        4.59174
N         -2.01701        0.65643        5.80467
C         -3.08828       -0.18125        6.06118
O         -3.67241       -0.24196        7.14275
N         -3.48809       -0.97734        5.03524
C         -2.94489       -1.00852        3.78835
O         -3.40470       -1.76421        2.93532
C         -1.60858        1.55939        6.89164
C         -0.57016        0.92201        7.81858
O          0.69799        0.85841        7.14936
C          1.67007        0.20091        7.95503
N         -0.17139        1.41116        4.43562
C          1.06497        1.03940       -1.17449
H          0.50378       -2.10220        0.21403
H          1.87364       -1.53970       -0.74467
H          1.57995       -0.85459        0.86537
H         -1.21941        0.00340       -2.34914
H         -1.22575       -1.59269       -1.49262
H         -1.47974        1.21042       -0.17919
H         -2.83890       -0.29658        1.01105
H         -1.63337       -1.60085        0.99072
H         -0.75358        0.91605        2.15112
H         -4.26957       -1.58815        5.20910
H         -1.23663        2.49972        6.46809
H         -2.49442        1.81865        7.48390
H         -0.45769        1.54278        8.71468
H         -0.88333       -0.08470        8.11832
H          1.81616        0.74029        8.89579
H          1.36579       -0.83117        8.15451
H          2.61651        0.18622        7.40831
H          0.34926        1.40655        5.32028
H          0.42139        0.97727        3.72820
H          1.77799        0.70572       -1.93535
H          0.43064        1.81026       -1.62556
H          1.62434        1.50261       -0.35508

--Link1--
%chk=JID_10395.chk
%mem=8GB
%nprocshared=4
# B3LYP/6-311++G(d,p) empiricaldispersion=gd3bj scf=xqc pop=npa geom=check

CID_105758667_JID_10395_Energie_neutraal

0 1

--Link1--
%chk=JID_10395.chk
%mem=8GB
%nprocshared=4
# B3LYP/6-311++G(d,p) empiricaldispersion=gd3bj scf=xqc pop=npa geom=check

CID_105758667_JID_10395_Energie_kation

1 2

--Link1--
%chk=JID_10395.chk
%mem=8GB
%nprocshared=4
# B3LYP/6-311++G(d,p) empiricaldispersion=gd3bj scf=xqc pop=npa geom=check

CID_105758667_JID_10395_Energie_anion

-1 2
