%chk=JID_10429.chk
%mem=8GB
%nprocshared=4
# opt freq B3LYP/6-31G(d) empiricaldispersion=gd3bj scf=xqc

CID_83267714_JID_10429_neutraal

0 1
C          2.62500       -0.32100        0.00300
C          1.25520       -0.00773        0.51671
C          0.34444       -0.96658        0.91992
S         -1.12243       -0.29836        1.47615
C         -0.56538        1.28846        1.19141
C          0.71069        1.32812        0.65556
C          1.45157        2.59123        0.34094
N          1.32420        3.01423       -1.04596
C          0.04600        3.40041       -1.61541
N          0.26255        4.75049       -2.17861
C          1.72364        4.87464       -2.35702
C          2.34628        3.82344       -1.51650
O          3.52409        3.80971       -1.19594
C          2.34311        6.23452       -2.52293
C          2.29782        5.27999       -3.68282
C         -0.48982        2.50586       -2.75765
C          0.40850        2.31361       -3.98564
C         -0.18700        1.11412       -4.72590
C         -1.10466        0.40990       -3.72886
C         -0.80861        1.06193       -2.38440
H          2.78867        0.15840       -0.96763
H          3.38423        0.03903        0.70457
H          2.76555       -1.39905       -0.12666
H          0.47480       -2.04050        0.91945
H         -1.20755        2.12482        1.43138
H          1.09548        3.41588        0.97214
H          2.51131        2.45922        0.59050
H         -0.70759        3.46436       -0.82231
H         -0.02533        5.41966       -1.46610
H          1.69637        7.10225       -2.56217
H          3.30726        6.41816       -2.06138
H          3.22802        4.81988       -3.99655
H          1.61351        5.49879       -4.49354
H         -1.42868        2.96435       -3.10731
H          0.43059        3.19721       -4.63013
H          1.43815        2.07971       -3.69226
H          0.60637        0.44732       -5.07988
H         -0.75850        1.43794       -5.60289
H         -0.93860       -0.67139       -3.70620
H         -2.15193        0.57946       -4.00634
H          0.06050        0.56863       -1.94353
H         -1.65589        0.98025       -1.69844

--Link1--
%chk=JID_10429.chk
%mem=8GB
%nprocshared=4
# B3LYP/6-311++G(d,p) empiricaldispersion=gd3bj scf=xqc pop=npa geom=check

CID_83267714_JID_10429_Energie_neutraal

0 1

--Link1--
%chk=JID_10429.chk
%mem=8GB
%nprocshared=4
# B3LYP/6-311++G(d,p) empiricaldispersion=gd3bj scf=xqc pop=npa geom=check

CID_83267714_JID_10429_Energie_kation

1 2

--Link1--
%chk=JID_10429.chk
%mem=8GB
%nprocshared=4
# B3LYP/6-311++G(d,p) empiricaldispersion=gd3bj scf=xqc pop=npa geom=check

CID_83267714_JID_10429_Energie_anion

-1 2
