%chk=JID_5797.chk
%mem=8GB
%nprocshared=4
# opt freq B3LYP/6-31G(d) empiricaldispersion=gd3bj scf=xqc

CID_77074005_JID_5797_neutraal

0 1
C          0.99564       -0.01972        0.09794
C          0.64175        0.24009       -1.33559
C         -0.02656       -0.65761       -2.08664
C         -0.36851       -0.57856       -3.54953
N          0.02386       -1.80060       -4.25270
C         -0.72302       -2.04784       -5.48442
C         -0.59245       -1.01994       -6.57280
C         -0.19164       -1.28783       -7.82332
C          1.46703       -2.03020       -4.34616
C          2.28629       -0.93876       -4.97718
C          3.22338       -0.22714       -4.33562
C          1.13002        1.54628       -1.84952
O          2.22690        2.00791       -1.57289
O          0.15304        2.17391       -2.55084
C          0.53344        3.45819       -3.04318
H          0.58146       -0.96747        0.45813
H          0.60199        0.77645        0.73866
H          2.08234       -0.06398        0.22528
H         -0.35071       -1.58228       -1.61102
H         -1.45965       -0.46512       -3.59543
H          0.05517        0.30067       -4.04120
H         -0.46291       -3.04325       -5.86800
H         -1.78905       -2.12326       -5.23169
H         -0.87056        0.00100       -6.32372
H         -0.13103       -0.49947       -8.56735
H          0.08720       -2.29091       -8.13102
H          1.85139       -2.24058       -3.33944
H          1.65470       -2.95899       -4.90087
H          2.12020       -0.74185       -6.03194
H          3.78889        0.54242       -4.85155
H          3.44109       -0.38336       -3.28310
H          0.73241        4.14240       -2.21250
H          1.40716        3.37702       -3.69774
H         -0.29975        3.85683       -3.62853

--Link1--
%chk=JID_5797.chk
%mem=8GB
%nprocshared=4
# B3LYP/6-311++G(d,p) empiricaldispersion=gd3bj scf=xqc pop=npa geom=check

CID_77074005_JID_5797_Energie_neutraal

0 1

--Link1--
%chk=JID_5797.chk
%mem=8GB
%nprocshared=4
# B3LYP/6-311++G(d,p) empiricaldispersion=gd3bj scf=xqc pop=npa geom=check

CID_77074005_JID_5797_Energie_kation

1 2

--Link1--
%chk=JID_5797.chk
%mem=8GB
%nprocshared=4
# B3LYP/6-311++G(d,p) empiricaldispersion=gd3bj scf=xqc pop=npa geom=check

CID_77074005_JID_5797_Energie_anion

-1 2
