%chk=JID_3659.chk
%mem=8GB
%nprocshared=4
# opt freq B3LYP/6-31G(d) empiricaldispersion=gd3bj scf=xqc

CID_57945654_JID_3659_neutraal

0 1
C          0.95780        0.03160       -0.08497
C          0.29425       -0.96601       -1.04467
C          1.10160       -2.27250       -1.04195
O          2.31859       -2.34111       -1.19912
N          0.19350       -3.33415       -0.88781
C         -1.19053       -2.83209       -0.77744
N         -1.00468       -1.39399       -0.49259
O         -2.06323       -0.58434       -0.89949
C         -1.91680       -3.43550        0.44638
C         -1.97619       -3.18793       -2.06392
C          0.49376       -4.68408       -0.90473
C          1.70714       -5.23442       -1.00847
C          0.32773       -0.41487       -2.48391
H          1.04217       -0.38313        0.92693
H          0.39101        0.96718       -0.02190
H          1.97486        0.27907       -0.41103
H         -2.90308       -2.98003        0.59415
H         -2.07973       -4.51283        0.33441
H         -1.33645       -3.29042        1.36581
H         -1.50046       -2.78467       -2.96251
H         -2.03141       -4.27420       -2.20191
H         -3.00973       -2.82585       -2.02920
H         -0.36194       -5.34801       -0.82504
H          1.82065       -6.31203       -1.01119
H          2.61271       -4.64500       -1.08864
H         -0.21170        0.53446       -2.57197
H          1.36114       -0.22817       -2.80144
H         -0.09306       -1.11833       -3.20815

--Link1--
%chk=JID_3659.chk
%mem=8GB
%nprocshared=4
# B3LYP/6-311++G(d,p) empiricaldispersion=gd3bj scf=xqc pop=npa geom=check

CID_57945654_JID_3659_Energie_neutraal

0 1

--Link1--
%chk=JID_3659.chk
%mem=8GB
%nprocshared=4
# B3LYP/6-311++G(d,p) empiricaldispersion=gd3bj scf=xqc pop=npa geom=check

CID_57945654_JID_3659_Energie_kation

1 2

--Link1--
%chk=JID_3659.chk
%mem=8GB
%nprocshared=4
# B3LYP/6-311++G(d,p) empiricaldispersion=gd3bj scf=xqc pop=npa geom=check

CID_57945654_JID_3659_Energie_anion

-1 2
