%chk=JID_8251.chk
%mem=8GB
%nprocshared=4
# opt freq B3LYP/6-31G(d) empiricaldispersion=gd3bj scf=xqc

CID_114185510_JID_8251_neutraal

0 1
C          1.02654        0.06179       -0.07401
C         -0.00985       -0.79273       -0.78952
N          0.59820       -2.06309       -1.17981
C         -0.32939       -3.04264       -1.56465
C         -1.22893       -2.89670       -2.61664
C         -2.12574       -3.94191       -2.84308
N         -2.07275       -5.07665       -2.12754
C         -1.14029       -5.13395       -1.16681
N         -0.26438       -4.17256       -0.84306
N         -3.03935       -3.83178       -3.91716
C         -4.15279       -4.79247       -3.86928
C         -5.24727       -4.55869       -2.86629
N         -5.63968       -3.32345       -2.50904
O         -6.66699       -3.56969       -1.59464
C         -6.79359       -4.91877       -1.51684
N         -5.96289       -5.57932       -2.28338
O         -1.30266       -1.76034       -3.38313
C         -0.32001       -1.82216       -4.41873
H          1.38744       -0.43502        0.83285
H          0.59375        1.02505        0.21312
H          1.89107        0.25186       -0.71890
H         -0.86081       -0.95569       -0.11676
H         -0.36214       -0.24105       -1.66656
H          1.08797       -2.49548       -0.39608
H         -1.09067       -6.05207       -0.59117
H         -3.39847       -2.87622       -3.90574
H         -4.63076       -4.75589       -4.85696
H         -3.77816       -5.82029       -3.77906
H         -7.55256       -5.29915       -0.85030
H         -0.41220       -0.91169       -5.01856
H          0.69618       -1.85484       -4.01203
H         -0.49359       -2.67940       -5.07879

--Link1--
%chk=JID_8251.chk
%mem=8GB
%nprocshared=4
# B3LYP/6-311++G(d,p) empiricaldispersion=gd3bj scf=xqc pop=npa geom=check

CID_114185510_JID_8251_Energie_neutraal

0 1

--Link1--
%chk=JID_8251.chk
%mem=8GB
%nprocshared=4
# B3LYP/6-311++G(d,p) empiricaldispersion=gd3bj scf=xqc pop=npa geom=check

CID_114185510_JID_8251_Energie_kation

1 2

--Link1--
%chk=JID_8251.chk
%mem=8GB
%nprocshared=4
# B3LYP/6-311++G(d,p) empiricaldispersion=gd3bj scf=xqc pop=npa geom=check

CID_114185510_JID_8251_Energie_anion

-1 2
