%chk=JID_4149.chk
%mem=8GB
%nprocshared=4
# opt freq B3LYP/6-31G(d) empiricaldispersion=gd3bj scf=xqc

CID_90453971_JID_4149_neutraal

0 1
C          1.08901        0.04322        0.01447
C          1.00543        0.16534       -1.49720
O          1.78481       -0.83698       -2.14213
C          3.19082       -0.57520       -2.19819
C          3.57877        0.33832       -3.36831
N          3.39704        1.77667       -3.08492
C          4.36884        2.47676       -2.38788
C          5.30867        3.26371       -2.95781
C          6.29024        4.03982       -2.09270
N          6.17176        3.88133       -0.64456
C          5.22484        3.11379       -0.24580
N          4.36452        2.41179       -1.02328
N          7.66285        3.70300       -2.42201
C          5.47118        3.48486       -4.44026
H          0.84214       -0.97496        0.33249
H          0.39701        0.74075        0.49537
H          2.09733        0.25701        0.37990
H         -0.03326       -0.00003       -1.80260
H          1.27834        1.16937       -1.82950
H          3.56945       -0.22330       -1.23541
H          3.65639       -1.55108       -2.37695
H          4.62502        0.16024       -3.64453
H          2.96056        0.08806       -4.23827
H          3.21751        2.24105       -3.97380
H          6.14055        5.10443       -2.31213
H          5.05301        2.96127        0.83230
H          3.55580        1.96058       -0.62278
H          8.23221        4.28793       -1.81230
H          7.80548        2.76393       -2.05588
H          6.45742        3.14801       -4.77568
H          4.73739        2.95010       -5.04773
H          5.37161        4.55014       -4.67392

--Link1--
%chk=JID_4149.chk
%mem=8GB
%nprocshared=4
# B3LYP/6-311++G(d,p) empiricaldispersion=gd3bj scf=xqc pop=npa geom=check

CID_90453971_JID_4149_Energie_neutraal

0 1

--Link1--
%chk=JID_4149.chk
%mem=8GB
%nprocshared=4
# B3LYP/6-311++G(d,p) empiricaldispersion=gd3bj scf=xqc pop=npa geom=check

CID_90453971_JID_4149_Energie_kation

1 2

--Link1--
%chk=JID_4149.chk
%mem=8GB
%nprocshared=4
# B3LYP/6-311++G(d,p) empiricaldispersion=gd3bj scf=xqc pop=npa geom=check

CID_90453971_JID_4149_Energie_anion

-1 2
