%chk=JID_8605.chk
%mem=8GB
%nprocshared=4
# opt freq B3LYP/6-31G(d) empiricaldispersion=gd3bj scf=xqc

CID_64214488_JID_8605_neutraal

0 1
C          2.49200        0.00400       -0.01400
C          0.98978        0.05613        0.05765
C          0.21706       -1.10335        0.21439
C         -1.17177       -0.96817        0.29685
C         -1.78348        0.28914        0.19406
C         -1.05088        1.47016        0.00495
C          0.34401        1.30639       -0.06335
N         -1.65830        2.71713       -0.10799
C         -3.10802        2.85902       -0.27571
C         -3.77949        3.03619        1.05631
C         -4.07310        4.41266        1.60215
C         -5.20028        3.53813        1.12913
C         -0.89785        3.96932       -0.01170
C         -0.43237        4.22084        1.39710
C          1.03653        4.27873        1.74542
C          0.22098        5.53810        1.74304
C          0.82905       -2.47333        0.35709
O          1.18222       -2.72807        1.71035
H          2.89867       -0.56555        0.82764
H          2.80803       -0.45731       -0.95482
H          2.93254        1.00556        0.03525
H         -1.79995       -1.84405        0.44827
H         -2.86497        0.30956        0.28670
H          0.97775        2.17222       -0.22559
H         -3.32125        3.71910       -0.92426
H         -3.54521        2.00716       -0.80905
H         -3.49343        2.26545        1.76317
H         -3.95575        4.56439        2.66925
H         -3.81414        5.27767        1.00276
H         -5.70431        3.81393        0.20994
H         -5.85251        3.10321        1.87829
H         -0.06894        3.98343       -0.72929
H         -1.53307        4.81495       -0.30452
H         -1.11256        3.81088        2.13521
H          1.33905        3.86441        2.70067
H          1.77144        4.15445        0.95904
H          0.40049        6.25536        0.95033
H         -0.02267        5.98662        2.69957
H          0.12450       -3.24803        0.03519
H          1.72057       -2.58200       -0.26824
H          0.87909       -1.97019        2.23991

--Link1--
%chk=JID_8605.chk
%mem=8GB
%nprocshared=4
# B3LYP/6-311++G(d,p) empiricaldispersion=gd3bj scf=xqc pop=npa geom=check

CID_64214488_JID_8605_Energie_neutraal

0 1

--Link1--
%chk=JID_8605.chk
%mem=8GB
%nprocshared=4
# B3LYP/6-311++G(d,p) empiricaldispersion=gd3bj scf=xqc pop=npa geom=check

CID_64214488_JID_8605_Energie_kation

1 2

--Link1--
%chk=JID_8605.chk
%mem=8GB
%nprocshared=4
# B3LYP/6-311++G(d,p) empiricaldispersion=gd3bj scf=xqc pop=npa geom=check

CID_64214488_JID_8605_Energie_anion

-1 2
