%chk=JID_10006.chk
%mem=8GB
%nprocshared=4
# opt freq B3LYP/6-31G(d) empiricaldispersion=gd3bj scf=xqc

CID_105813639_JID_10006_neutraal

0 1
C          1.05215        0.08533       -0.00013
C         -0.05795       -0.73106       -0.64720
C         -0.28165       -2.08267        0.03131
O         -0.79557       -1.89290        1.35059
C          0.11378       -2.10662        2.37388
N          1.14191       -2.94803        2.17805
C          1.95681       -3.09668        3.22795
N          1.85688       -2.47255        4.41032
C          0.82203       -1.63017        4.56279
C         -0.15978       -1.46852        3.57874
N         -1.20578       -0.51712        3.72710
N          0.67034       -0.88421        5.75470
C          1.77042       -0.94371        6.72836
C          2.85557        0.16895        6.59789
C          3.50678        0.26590        5.20822
C          4.10182        1.66601        5.14597
C          3.15249        2.53589        5.96412
C          2.27877        1.58436        6.78967
S          4.17074       -0.32142        7.85773
C          4.74763        1.24056        8.56374
H          1.98788       -0.48141        0.03504
H          0.78786        0.38452        1.01826
H          1.23050        0.99869       -0.57671
H         -0.98392       -0.14516       -0.61330
H          0.19000       -0.89792       -1.70148
H         -1.05547       -2.62411       -0.52522
H          0.62179       -2.69916       -0.02913
H          2.78892       -3.78240        3.10957
H         -1.53804       -0.52601        4.69090
H         -1.95276       -0.71868        3.06263
H          0.40059        0.05908        5.48671
H          1.29748       -0.83533        7.71412
H          2.22171       -1.94448        6.73673
H          4.25214       -0.51141        5.01006
H          2.75668        0.20412        4.41333
H          4.19145        2.02316        4.11491
H          5.10820        1.67788        5.57625
H          2.52163        3.14064        5.30227
H          3.70560        3.23461        6.59951
H          1.26107        1.65459        6.39003
H          2.19238        1.89245        7.83489
H          5.20887        1.88226        7.81335
H          3.94689        1.76795        9.08526
H          5.51764        1.00984        9.30638

--Link1--
%chk=JID_10006.chk
%mem=8GB
%nprocshared=4
# B3LYP/6-311++G(d,p) empiricaldispersion=gd3bj scf=xqc pop=npa geom=check

CID_105813639_JID_10006_Energie_neutraal

0 1

--Link1--
%chk=JID_10006.chk
%mem=8GB
%nprocshared=4
# B3LYP/6-311++G(d,p) empiricaldispersion=gd3bj scf=xqc pop=npa geom=check

CID_105813639_JID_10006_Energie_kation

1 2

--Link1--
%chk=JID_10006.chk
%mem=8GB
%nprocshared=4
# B3LYP/6-311++G(d,p) empiricaldispersion=gd3bj scf=xqc pop=npa geom=check

CID_105813639_JID_10006_Energie_anion

-1 2
