%chk=JID_6910.chk
%mem=8GB
%nprocshared=4
# opt freq B3LYP/6-31G(d) empiricaldispersion=gd3bj scf=xqc

CID_114809617_JID_6910_neutraal

0 1
C          0.91114       -0.04414       -0.01251
C         -0.01293       -0.57229        1.07153
C         -0.24883        0.40371        2.22736
C         -0.97512        1.68775        1.82073
C         -1.23664        2.63409        3.03227
N         -0.86684        3.82698        2.18541
C         -0.09764        2.86822        1.30566
S         -2.05029        4.87403        1.59667
O         -2.28230        4.55886        0.20817
O         -3.15079        4.89360        2.53049
N         -1.33184        6.36688        1.72840
C         -0.10385        6.82019        1.03142
C         -0.02180        6.35545       -0.42149
C         -0.14416        8.36326        1.04098
C          1.13050        6.37639        1.82274
O         -2.14583        1.36191        1.02327
H          0.45182        0.78360       -0.55989
H          1.13147       -0.83529       -0.73649
H          1.85950        0.30102        0.41094
H         -0.96620       -0.86795        0.61903
H          0.43042       -1.48673        1.48460
H         -0.85179       -0.11683        2.98270
H          0.70893        0.63887        2.70844
H         -2.26334        2.64119        3.40700
H         -0.55037        2.52473        3.88003
H          0.95990        2.82747        1.58990
H         -0.16963        3.07874        0.23661
H         -2.07775        7.06355        1.73110
H         -0.92807        6.61894       -0.97787
H          0.82790        6.82138       -0.93436
H          0.12120        5.27452       -0.49814
H         -0.21481        8.75251        2.06370
H          0.75368        8.79088        0.58066
H         -1.01399        8.73943        0.48920
H          1.04389        6.65019        2.88073
H          1.28292        5.29608        1.77504
H          2.04040        6.84444        1.42968
H         -2.46949        2.21163        0.66561

--Link1--
%chk=JID_6910.chk
%mem=8GB
%nprocshared=4
# B3LYP/6-311++G(d,p) empiricaldispersion=gd3bj scf=xqc pop=npa geom=check

CID_114809617_JID_6910_Energie_neutraal

0 1

--Link1--
%chk=JID_6910.chk
%mem=8GB
%nprocshared=4
# B3LYP/6-311++G(d,p) empiricaldispersion=gd3bj scf=xqc pop=npa geom=check

CID_114809617_JID_6910_Energie_kation

1 2

--Link1--
%chk=JID_6910.chk
%mem=8GB
%nprocshared=4
# B3LYP/6-311++G(d,p) empiricaldispersion=gd3bj scf=xqc pop=npa geom=check

CID_114809617_JID_6910_Energie_anion

-1 2
