%chk=JID_10578.chk
%mem=8GB
%nprocshared=4
# opt=(cartesian,calcfc) freq B3LYP/6-31G(d) empiricaldispersion=gd3bj scf=xqc

CID_80765217_JID_10578_neutraal

0 1
6	2.882280	 -2.519982	 -0.228867
6	3.519024	 -1.400965	 -1.066545
6	2.798402	 -0.137236	 -0.559920
7	1.469190	 -0.640559	 -0.200924
6	1.406186	 -2.108536	 -0.155365
6	0.358556	 0.136336	 -0.218177
7	0.531435	 1.464335	 -0.353391
6	-0.613198	 2.166183	 -0.343069
7	-1.858859	 1.660503	 -0.206850
6	-1.874654	 0.341800	 -0.078605
7	-0.829293	 -0.489834	 -0.073117
7	-3.124203	 -0.281880	 0.069362
6	-3.335501	 -1.630995	 0.232924
6	-4.691374	 -1.801010	 0.342635
6	-5.228263	 -0.487395	 0.232110
7	-4.288481	 0.429330	 0.067911
7	-0.520645	 3.509588	 -0.459516
6	3.581661	 0.507844	 0.596479
8	4.712717	 0.931283	 0.406270
7	2.967149	 0.515937	 1.814063
1	3.011027	 -3.513979	 -0.665130
1	3.319700	 -2.530403	 0.775670
1	3.295403	 -1.546533	 -2.129285
1	4.600274	 -1.312551	 -0.949130
1	2.713270	 0.633052	 -1.329579
1	0.830310	 -2.484399	 -1.010392
1	0.901834	 -2.444940	 0.754298
1	-2.503068	 -2.314328	 0.252592
1	-5.224376	 -2.730051	 0.482390
1	-6.266070	 -0.181891	 0.266550
1	-1.369036	 4.042959	 -0.553799
1	0.371405	 3.922488	 -0.675879
1	1.969604	 0.373365	 1.868916
1	3.405247	 1.068739	 2.538249

--Link1--
%chk=JID_10578.chk
%mem=8GB
%nprocshared=4
# B3LYP/6-311++G(d,p) empiricaldispersion=gd3bj scf=xqc pop=npa geom=check

CID_80765217_JID_10578_Energie_neutraal

0 1

--Link1--
%chk=JID_10578.chk
%mem=8GB
%nprocshared=4
# B3LYP/6-311++G(d,p) empiricaldispersion=gd3bj scf=xqc pop=npa geom=check

CID_80765217_JID_10578_Energie_kation

1 2

--Link1--
%chk=JID_10578.chk
%mem=8GB
%nprocshared=4
# B3LYP/6-311++G(d,p) empiricaldispersion=gd3bj scf=xqc pop=npa geom=check

CID_80765217_JID_10578_Energie_anion

-1 2
