%chk=JID_9228.chk
%mem=8GB
%nprocshared=4
# opt freq B3LYP/6-31G(d) empiricaldispersion=gd3bj scf=xqc

CID_106378878_JID_9228_neutraal

0 1
C          1.09072       -0.02005       -0.03698
C          0.43713       -0.94432       -0.98739
C          0.48869       -2.32121       -1.04367
O         -0.29873       -2.72981       -2.08189
C         -0.77454       -1.56504       -2.62138
N         -0.36722       -0.47343       -2.00101
C         -1.70221       -1.69272       -3.79195
N         -1.11255       -2.02431       -5.09521
C         -0.58179       -3.30383       -5.23876
N          0.65459       -3.35431       -5.74935
C          1.20053       -4.57294       -5.92378
N          0.58257       -5.73443       -5.64649
C         -0.66155       -5.64730       -5.17278
C         -1.29402       -4.44637       -4.94801
N         -1.30255       -6.85258       -4.88229
C          2.58792       -4.65713       -6.51960
C          2.56029       -4.25703       -7.99418
C          3.58585       -3.80564       -5.73583
C          1.16648       -3.37438       -0.26999
H          0.75568       -0.22136        0.98519
H          0.85111        1.02100       -0.27478
H          2.17824       -0.13601       -0.07547
H         -2.50862       -2.39108       -3.53850
H         -2.19853       -0.72180       -3.91501
H         -0.34650       -1.39077       -5.32325
H         -2.30358       -4.41499       -4.56734
H         -0.67245       -7.59962       -5.16514
H         -2.19757       -6.92072       -5.35305
H          2.92328       -5.70080       -6.45981
H          2.24750       -3.21494       -8.12505
H          3.55195       -4.37009       -8.44510
H          1.86186       -4.88603       -8.55771
H          3.60379       -4.09653       -4.67964
H          4.59754       -3.93075       -6.13653
H          3.33679       -2.73962       -5.78382
H          0.43774       -4.08509        0.13150
H          1.86884       -3.92247       -0.90550
H          1.72632       -2.95113        0.56942

--Link1--
%chk=JID_9228.chk
%mem=8GB
%nprocshared=4
# B3LYP/6-311++G(d,p) empiricaldispersion=gd3bj scf=xqc pop=npa geom=check

CID_106378878_JID_9228_Energie_neutraal

0 1

--Link1--
%chk=JID_9228.chk
%mem=8GB
%nprocshared=4
# B3LYP/6-311++G(d,p) empiricaldispersion=gd3bj scf=xqc pop=npa geom=check

CID_106378878_JID_9228_Energie_kation

1 2

--Link1--
%chk=JID_9228.chk
%mem=8GB
%nprocshared=4
# B3LYP/6-311++G(d,p) empiricaldispersion=gd3bj scf=xqc pop=npa geom=check

CID_106378878_JID_9228_Energie_anion

-1 2
