%chk=JID_5622.chk
%mem=8GB
%nprocshared=4
# opt freq B3LYP/6-31G(d) empiricaldispersion=gd3bj scf=xqc

CID_91502764_JID_5622_neutraal

0 1
C          1.00134       -0.06524       -0.07578
C          0.10919       -1.29936       -0.11238
C          0.83391       -2.66180       -0.23994
C         -0.34962       -3.35756        0.62234
C         -0.58162       -1.80189        1.20321
C          0.20618       -1.45282        2.49130
C         -1.94525       -1.11680        1.34088
C          0.34866       -4.23393        1.70239
C         -1.46931       -4.22716       -0.13726
C         -2.29935       -3.38387       -1.13550
C         -0.79735       -5.31458       -1.03048
C         -2.50968       -4.97714        0.81182
C         -2.04393       -6.27688        1.49571
C         -3.21030       -4.10568        1.85324
C          1.27298       -3.00206       -1.65392
H          0.41912        0.82176        0.19338
H          1.44566        0.11433       -1.06033
H          1.82019       -0.16824        0.64237
H         -0.61537       -1.13934       -0.92255
H          1.77757       -2.64408        0.33094
H          0.15917       -0.37834        2.70447
H         -0.21892       -1.97572        3.35480
H          1.26711       -1.70846        2.42312
H         -2.55943       -1.18303        0.44637
H         -2.50718       -1.50771        2.19181
H         -1.81651       -0.04218        1.52406
H         -0.27397       -4.31655        2.59640
H          0.58671       -5.23628        1.34231
H          1.30543       -3.82131        2.03684
H         -1.67975       -2.77776       -1.79709
H         -2.89591       -4.03576       -1.78753
H         -3.02050       -2.73204       -0.64836
H          0.01129       -5.85208       -0.53187
H         -1.53401       -6.05853       -1.35965
H         -0.38794       -4.89948       -1.95305
H         -3.31413       -5.31875        0.14114
H         -1.39118       -6.10113        2.35171
H         -2.91513       -6.81970        1.88346
H         -1.54017       -6.96018        0.80820
H         -3.73600       -3.26871        1.38900
H         -3.97057       -4.68588        2.38955
H         -2.51091       -3.72809        2.60254
H          2.06092       -2.31451       -1.98188
H          1.69352       -4.01117       -1.69740
H          0.45962       -2.91925       -2.37786

--Link1--
%chk=JID_5622.chk
%mem=8GB
%nprocshared=4
# B3LYP/6-311++G(d,p) empiricaldispersion=gd3bj scf=xqc pop=npa geom=check

CID_91502764_JID_5622_Energie_neutraal

0 1

--Link1--
%chk=JID_5622.chk
%mem=8GB
%nprocshared=4
# B3LYP/6-311++G(d,p) empiricaldispersion=gd3bj scf=xqc pop=npa geom=check

CID_91502764_JID_5622_Energie_kation

1 2

--Link1--
%chk=JID_5622.chk
%mem=8GB
%nprocshared=4
# B3LYP/6-311++G(d,p) empiricaldispersion=gd3bj scf=xqc pop=npa geom=check

CID_91502764_JID_5622_Energie_anion

-1 2
