%chk=JID_6057.chk
%mem=8GB
%nprocshared=4
# opt freq B3LYP/6-31G(d) empiricaldispersion=gd3bj scf=xqc

CID_119827655_JID_6057_neutraal

0 1
C          2.50100       -0.11500        0.00200
C          1.00864       -0.18542        0.03480
C          0.34568       -1.39623       -0.10155
N         -0.99878       -1.53940       -0.04104
C         -1.73782       -0.43987        0.17872
C         -1.16086        0.81685        0.33178
C          0.22659        0.94259        0.26625
N         -3.12733       -0.51818        0.26057
C         -3.95793       -1.59850        0.18633
O         -5.17174       -1.36192        0.23868
C         -3.40035       -3.03102        0.06279
C         -2.76283       -3.52319        1.36957
C         -3.56030       -4.76256        1.74782
C         -4.09654       -5.25485        0.41095
N         -4.50081       -3.99591       -0.21452
O         -4.64363       -4.38461        2.60008
H          2.90949       -0.33636        0.99283
H          2.90853       -0.83199       -0.71849
H          2.84055        0.88044       -0.30302
H          0.89235       -2.32150       -0.26649
H         -1.76816        1.69800        0.51108
H          0.68523        1.91935        0.39909
H         -3.63994        0.34427        0.37838
H         -2.69976       -3.08395       -0.77646
H         -1.72427       -3.81609        1.17685
H         -2.77804       -2.77208        2.16630
H         -2.95582       -5.50977        2.26896
H         -4.95601       -5.92148        0.52208
H         -3.31658       -5.74809       -0.17950
H         -4.65082       -4.08953       -1.21655
H         -5.25251       -3.87175        2.02806

--Link1--
%chk=JID_6057.chk
%mem=8GB
%nprocshared=4
# B3LYP/6-311++G(d,p) empiricaldispersion=gd3bj scf=xqc pop=npa geom=check

CID_119827655_JID_6057_Energie_neutraal

0 1

--Link1--
%chk=JID_6057.chk
%mem=8GB
%nprocshared=4
# B3LYP/6-311++G(d,p) empiricaldispersion=gd3bj scf=xqc pop=npa geom=check

CID_119827655_JID_6057_Energie_kation

1 2

--Link1--
%chk=JID_6057.chk
%mem=8GB
%nprocshared=4
# B3LYP/6-311++G(d,p) empiricaldispersion=gd3bj scf=xqc pop=npa geom=check

CID_119827655_JID_6057_Energie_anion

-1 2
