%chk=JID_8973.chk
%mem=8GB
%nprocshared=4
# opt freq B3LYP/6-31G(d) empiricaldispersion=gd3bj scf=xqc

CID_116397850_JID_8973_neutraal

0 1
C          0.93655       -0.06392        0.04345
C          0.92121       -1.45000       -0.63127
C          2.27215       -1.69409       -1.37034
S          3.65334       -2.12697       -0.24556
C          2.80986       -3.43641        0.69131
C          1.49600       -2.94334        1.30198
N          0.48912       -2.41184        0.38849
C         -0.62253       -3.30663        0.04381
C         -0.33137       -4.49673       -0.85139
N         -0.71109       -4.41581       -2.14278
C         -0.44668       -5.47808       -2.92640
C          0.17580       -6.61083       -2.44471
C          0.51527       -6.61847       -1.10562
N          0.27623       -5.56584       -0.29978
N          1.18815       -7.76103       -0.58624
N          1.52389       -7.72238        0.79410
C         -0.84084       -5.38614       -4.36931
C          2.18741       -2.74382       -2.47628
H         -0.03912        0.16344        0.48892
H          1.14549        0.72085       -0.69211
H          1.69124        0.00784        0.83356
H          0.14338       -1.37528       -1.40380
H          2.56845       -0.75630       -1.85642
H          3.48321       -3.75584        1.49372
H          2.65525       -4.30404        0.04562
H          1.73000       -2.15789        2.03320
H          1.06977       -3.75399        1.90709
H         -1.06533       -3.69352        0.97124
H         -1.42842       -2.71734       -0.41315
H          0.40099       -7.45018       -3.08945
H          0.68289       -8.60618       -0.86305
H          2.30665       -7.07137        0.91088
H          0.75935       -7.25943        1.30135
H         -1.53619       -6.19193       -4.62427
H         -1.33453       -4.43158       -4.57845
H          0.04477       -5.45881       -5.00824
H          1.35994       -2.51795       -3.15734
H          3.10334       -2.74697       -3.07905
H          2.04640       -3.75635       -2.09485

--Link1--
%chk=JID_8973.chk
%mem=8GB
%nprocshared=4
# B3LYP/6-311++G(d,p) empiricaldispersion=gd3bj scf=xqc pop=npa geom=check

CID_116397850_JID_8973_Energie_neutraal

0 1

--Link1--
%chk=JID_8973.chk
%mem=8GB
%nprocshared=4
# B3LYP/6-311++G(d,p) empiricaldispersion=gd3bj scf=xqc pop=npa geom=check

CID_116397850_JID_8973_Energie_kation

1 2

--Link1--
%chk=JID_8973.chk
%mem=8GB
%nprocshared=4
# B3LYP/6-311++G(d,p) empiricaldispersion=gd3bj scf=xqc pop=npa geom=check

CID_116397850_JID_8973_Energie_anion

-1 2
