%chk=JID_7276.chk
%mem=8GB
%nprocshared=4
# opt freq B3LYP/6-31G(d) empiricaldispersion=gd3bj scf=xqc

CID_151274794_JID_7276_neutraal

0 1
C          2.49200        0.00400       -0.01400
C          0.99301        0.03659       -0.06081
C          0.26448       -1.15090       -0.19797
C         -1.13284       -1.12801       -0.20900
C         -1.82209        0.08257       -0.07769
C         -1.09450        1.26822        0.07976
C          0.30277        1.24456        0.09185
C         -3.29641        0.09339       -0.07473
C         -3.94257        0.69366       -1.10102
C         -5.45362        0.77045       -1.18214
C         -6.11176       -0.36452       -0.39283
C         -7.55535       -0.13904        0.06225
C         -7.58946       -0.74255        1.45435
O         -8.58438       -0.93370        2.13247
N         -6.28572       -0.95584        1.85480
C         -5.38824       -0.62290        0.89436
C         -4.07301       -0.44551        1.04008
H          2.83009       -0.20301        1.00599
H          2.88431       -0.76910       -0.68303
H          2.91627        0.95994       -0.33859
H          0.78057       -2.10317       -0.29795
H         -1.68003       -2.06095       -0.32299
H         -1.61197        2.21691        0.20175
H          0.84788        2.17666        0.22246
H         -3.38627        1.14777       -1.91791
H         -5.77189        1.75391       -0.81574
H         -5.76522        0.70287       -2.23095
H         -6.07539       -1.28642       -0.99167
H         -8.26609       -0.65248       -0.59119
H         -7.81213        0.92271        0.13207
H         -6.06173       -1.22524        2.80285
H         -3.56686       -0.61376        1.98488

--Link1--
%chk=JID_7276.chk
%mem=8GB
%nprocshared=4
# B3LYP/6-311++G(d,p) empiricaldispersion=gd3bj scf=xqc pop=npa geom=check

CID_151274794_JID_7276_Energie_neutraal

0 1

--Link1--
%chk=JID_7276.chk
%mem=8GB
%nprocshared=4
# B3LYP/6-311++G(d,p) empiricaldispersion=gd3bj scf=xqc pop=npa geom=check

CID_151274794_JID_7276_Energie_kation

1 2

--Link1--
%chk=JID_7276.chk
%mem=8GB
%nprocshared=4
# B3LYP/6-311++G(d,p) empiricaldispersion=gd3bj scf=xqc pop=npa geom=check

CID_151274794_JID_7276_Energie_anion

-1 2
