%chk=JID_7717.chk
%mem=8GB
%nprocshared=4
# opt freq B3LYP/6-31G(d) empiricaldispersion=gd3bj scf=xqc

CID_12553767_JID_7717_neutraal

0 1
C          0.98893       -0.04342        0.08940
C         -0.17391       -1.03104       -0.03260
C          0.13231       -2.29493        0.77047
C         -1.50277       -0.41698        0.43158
O         -1.95643        0.58080       -0.49928
C         -1.75758        1.87716       -0.16111
O         -1.18948        2.25031        0.86013
N         -2.18829        2.79537       -1.08179
C         -2.94817        2.66715       -2.25890
C         -3.04305        3.80775       -3.06833
C         -3.78124        3.78761       -4.25233
C         -4.45004        2.62726       -4.63161
C         -4.38793        1.48500       -3.82480
C         -3.63097        1.50849       -2.64231
C         -5.15012        0.27500       -4.25669
O         -5.67122        0.24580       -5.37004
C         -5.26998       -0.89197       -3.31160
H          1.09846        0.31672        1.11784
H          0.84264        0.82194       -0.56407
H          1.93210       -0.51656       -0.20468
H         -0.26499       -1.30378       -1.09178
H          0.23327       -2.07325        1.83828
H         -0.66662       -3.03442        0.65099
H          1.06519       -2.75666        0.42975
H         -2.28036       -1.18944        0.44224
H         -1.43571       -0.02862        1.45489
H         -1.87319        3.72548       -0.83715
H         -2.53049        4.72770       -2.79513
H         -3.83678        4.67558       -4.87743
H         -5.02855        2.61943       -5.55410
H         -3.60244        0.62488       -2.01894
H         -4.30135       -1.38431       -3.19567
H         -5.65966       -0.56239       -2.34475
H         -5.97915       -1.61626       -3.72477

--Link1--
%chk=JID_7717.chk
%mem=8GB
%nprocshared=4
# B3LYP/6-311++G(d,p) empiricaldispersion=gd3bj scf=xqc pop=npa geom=check

CID_12553767_JID_7717_Energie_neutraal

0 1

--Link1--
%chk=JID_7717.chk
%mem=8GB
%nprocshared=4
# B3LYP/6-311++G(d,p) empiricaldispersion=gd3bj scf=xqc pop=npa geom=check

CID_12553767_JID_7717_Energie_kation

1 2

--Link1--
%chk=JID_7717.chk
%mem=8GB
%nprocshared=4
# B3LYP/6-311++G(d,p) empiricaldispersion=gd3bj scf=xqc pop=npa geom=check

CID_12553767_JID_7717_Energie_anion

-1 2
