%chk=JID_9265.chk
%mem=8GB
%nprocshared=4
# opt freq B3LYP/6-31G(d) empiricaldispersion=gd3bj scf=xqc

CID_104729746_JID_9265_neutraal

0 1
C          0.97398        0.05694        0.07798
C          0.68164       -1.03597       -0.94649
C          1.00816       -2.48826       -0.48495
C          0.32830       -2.82613        0.87641
C         -1.18662       -2.65948        0.92124
C          0.54501       -3.50329       -1.56360
N          1.27011       -3.37891       -2.82083
C          2.13509       -4.33694       -3.30351
N          2.07524       -5.56425       -2.84214
C          2.93128       -6.52093       -3.34347
C          3.85013       -6.27605       -4.28601
N          3.95534       -4.99427       -4.78804
C          3.11595       -4.00611       -4.31805
C          3.45980       -2.84343       -4.96824
C          4.51093       -3.22163       -5.81978
N          4.81203       -4.51810       -5.72536
C          2.52266       -2.64245       -0.34692
O          3.36984       -1.95681       -0.90053
O          2.90544       -3.67483        0.42706
H          0.33389       -0.02912        0.96007
H          0.78462        1.03999       -0.36607
H          2.01746        0.03566        0.40503
H         -0.37475       -0.96604       -1.23393
H          1.25280       -0.78910       -1.84987
H          0.54675       -3.86720        1.14973
H          0.77428       -2.21979        1.67510
H         -1.68466       -3.31176        0.19860
H         -1.55733       -2.92931        1.91594
H         -1.49219       -1.62816        0.72766
H          0.61991       -4.52305       -1.16752
H         -0.51603       -3.34552       -1.78831
H          1.40174       -2.43968       -3.17308
H          2.82094       -7.51887       -2.92833
H          4.52533       -7.01778       -4.68646
H          3.02832       -1.86168       -4.84363
H          5.07454       -2.60363       -6.50737
H          3.88189       -3.69244        0.33985

--Link1--
%chk=JID_9265.chk
%mem=8GB
%nprocshared=4
# B3LYP/6-311++G(d,p) empiricaldispersion=gd3bj scf=xqc pop=npa geom=check

CID_104729746_JID_9265_Energie_neutraal

0 1

--Link1--
%chk=JID_9265.chk
%mem=8GB
%nprocshared=4
# B3LYP/6-311++G(d,p) empiricaldispersion=gd3bj scf=xqc pop=npa geom=check

CID_104729746_JID_9265_Energie_kation

1 2

--Link1--
%chk=JID_9265.chk
%mem=8GB
%nprocshared=4
# B3LYP/6-311++G(d,p) empiricaldispersion=gd3bj scf=xqc pop=npa geom=check

CID_104729746_JID_9265_Energie_anion

-1 2
