%chk=JID_10589.chk
%mem=8GB
%nprocshared=4
# opt freq B3LYP/6-31G(d) empiricaldispersion=gd3bj scf=xqc

CID_28303779_JID_10589_neutraal

0 1
C          1.34400       -0.22500        0.03600
C          1.18112        0.84802        0.90915
C         -0.09963        1.31033        1.23051
C         -1.23700        0.71848        0.66626
C         -1.05407       -0.36283       -0.21248
C          0.22431       -0.82977       -0.52654
C         -2.65409        1.11544        1.01940
C         -2.89039        2.50110        1.63185
C         -2.64947        3.67894        0.68508
N         -3.54253        3.74093       -0.45702
C         -3.19379        3.44276       -1.75757
C         -2.01427        2.97956       -2.35706
C         -2.03033        2.79494       -3.74484
C         -3.17480        3.05835       -4.49790
C         -4.34472        3.51428       -3.88034
C         -4.34575        3.70709       -2.49087
N         -5.35666        4.14705       -1.67848
C         -4.85322        4.17895       -0.45835
C         -5.61784        4.60960        0.75192
N         -6.37369        3.48589        1.30258
H          2.33941       -0.58811       -0.20419
H          2.05390        1.32064        1.35282
H         -0.18112        2.13041        1.93754
H         -1.91732       -0.85979       -0.65231
H          0.34212       -1.67154       -1.20386
H         -3.28682        1.01056        0.12927
H         -3.01447        0.37089        1.74192
H         -3.92399        2.53231        1.99153
H         -2.26812        2.63012        2.52496
H         -2.76951        4.62135        1.23203
H         -1.61871        3.68077        0.31774
H         -1.11962        2.76502       -1.78226
H         -1.13153        2.43805       -4.24365
H         -3.16140        2.90847       -5.57450
H         -5.23949        3.72191       -4.45608
H         -4.96620        5.02899        1.52276
H         -6.31807        5.40105        0.46030
H         -7.07585        3.84876        1.94421
H         -6.89925        3.07176        0.52833

--Link1--
%chk=JID_10589.chk
%mem=8GB
%nprocshared=4
# B3LYP/6-311++G(d,p) empiricaldispersion=gd3bj scf=xqc pop=npa geom=check

CID_28303779_JID_10589_Energie_neutraal

0 1

--Link1--
%chk=JID_10589.chk
%mem=8GB
%nprocshared=4
# B3LYP/6-311++G(d,p) empiricaldispersion=gd3bj scf=xqc pop=npa geom=check

CID_28303779_JID_10589_Energie_kation

1 2

--Link1--
%chk=JID_10589.chk
%mem=8GB
%nprocshared=4
# B3LYP/6-311++G(d,p) empiricaldispersion=gd3bj scf=xqc pop=npa geom=check

CID_28303779_JID_10589_Energie_anion

-1 2
