%chk=JID_10501.chk
%mem=8GB
%nprocshared=4
# opt freq B3LYP/6-31G(d) empiricaldispersion=gd3bj scf=xqc

CID_23471302_JID_10501_neutraal

0 1
C          0.98527        0.09265       -0.03464
C          0.28015        1.42503        0.16133
C          0.68152        2.49600       -0.86192
C          0.38164        2.16100       -2.35140
C         -1.12598        1.89285       -2.52136
C          0.93240        3.24678       -3.34340
C          0.31804        4.62753       -2.98423
O         -0.87641        4.89969       -3.02754
N          1.31025        5.48836       -2.62040
C          2.53220        4.90216       -2.72722
O          3.60706        5.45140       -2.53553
N          2.35876        3.58021       -3.12200
C          3.49877        2.77154       -3.52336
C          3.67658        1.61013       -2.60059
C          3.69722        0.32447       -2.97698
C          1.10023        6.86759       -2.25531
C          1.21919        7.72259       -3.48452
C          0.19033        8.33465       -4.08596
C          0.61710        3.01185       -4.84701
C          0.80631        1.59496       -5.37919
H          0.69117       -0.38536       -0.97327
H          0.72588       -0.59169        0.77962
H          2.07205        0.21992       -0.03353
H         -0.80428        1.27235        0.15432
H          0.52699        1.80151        1.16183
H          0.16080        3.42157       -0.58594
H          1.74869        2.69952       -0.72817
H          0.89579        1.22454       -2.59147
H         -1.73074        2.68217       -2.06397
H         -1.42637        1.80741       -3.56766
H         -1.40444        0.94855       -2.04164
H          3.38649        2.48028       -4.56925
H          4.41176        3.37593       -3.47535
H          3.83882        1.85041       -1.55189
H          3.85166       -0.46302       -2.24509
H          3.56800        0.02570       -4.01214
H          0.11313        6.97324       -1.79177
H          1.85821        7.17336       -1.52614
H          2.22232        7.85317       -3.88657
H          0.34561        8.94608       -4.96953
H         -0.82756        8.22905       -3.72094
H         -0.42363        3.29433       -5.05354
H          1.22440        3.69362       -5.45797
H          0.15550        0.87426       -4.87847
H          0.55548        1.56933       -6.44527
H          1.83316        1.24421       -5.28210

--Link1--
%chk=JID_10501.chk
%mem=8GB
%nprocshared=4
# B3LYP/6-311++G(d,p) empiricaldispersion=gd3bj scf=xqc pop=npa geom=check

CID_23471302_JID_10501_Energie_neutraal

0 1

--Link1--
%chk=JID_10501.chk
%mem=8GB
%nprocshared=4
# B3LYP/6-311++G(d,p) empiricaldispersion=gd3bj scf=xqc pop=npa geom=check

CID_23471302_JID_10501_Energie_kation

1 2

--Link1--
%chk=JID_10501.chk
%mem=8GB
%nprocshared=4
# B3LYP/6-311++G(d,p) empiricaldispersion=gd3bj scf=xqc pop=npa geom=check

CID_23471302_JID_10501_Energie_anion

-1 2
