%chk=JID_6275.chk
%mem=8GB
%nprocshared=4
# opt freq B3LYP/6-31G(d) empiricaldispersion=gd3bj scf=xqc

CID_141282608_JID_6275_neutraal

0 1
C          1.07186       -0.06877       -0.01033
C          0.61778       -1.39084       -0.61002
C          1.07845       -2.64052        0.07660
C          1.88106       -2.86570        1.18604
N          1.96404       -4.22998        1.34347
N          1.26078       -4.90275        0.41295
C          0.73260       -3.94774       -0.34865
C          2.69573       -4.96834        2.37744
C          3.73305       -5.93937        1.79582
C          3.13833       -7.28992        1.40780
N          2.38701       -7.87102        2.52069
C          1.26165       -7.01267        2.88985
C          1.75426       -5.65351        3.37635
C          2.52328       -1.92747        2.03756
N          3.05057       -1.17249        2.74188
O         -0.80945       -1.36996       -0.67841
H          0.69582        0.05807        1.01094
H          0.66655        0.76800       -0.59083
H          2.16227        0.02138       -0.00413
H          0.97600       -1.42863       -1.64615
H          0.10679       -4.22979       -1.18785
H          3.25708       -4.20861        2.93424
H          4.24205       -5.49593        0.93142
H          4.50594       -6.11192        2.55730
H          2.50741       -7.21142        0.51608
H          3.95611       -7.97134        1.14687
H          2.02200       -8.77829        2.22698
H          0.70618       -7.49644        3.70129
H          0.56164       -6.90998        2.05349
H          2.29911       -5.80134        4.31873
H          0.89669       -5.01104        3.61037
H         -1.14123       -1.34955        0.23577

--Link1--
%chk=JID_6275.chk
%mem=8GB
%nprocshared=4
# B3LYP/6-311++G(d,p) empiricaldispersion=gd3bj scf=xqc pop=npa geom=check

CID_141282608_JID_6275_Energie_neutraal

0 1

--Link1--
%chk=JID_6275.chk
%mem=8GB
%nprocshared=4
# B3LYP/6-311++G(d,p) empiricaldispersion=gd3bj scf=xqc pop=npa geom=check

CID_141282608_JID_6275_Energie_kation

1 2

--Link1--
%chk=JID_6275.chk
%mem=8GB
%nprocshared=4
# B3LYP/6-311++G(d,p) empiricaldispersion=gd3bj scf=xqc pop=npa geom=check

CID_141282608_JID_6275_Energie_anion

-1 2
