%chk=JID_6195.chk
%mem=8GB
%nprocshared=4
# opt freq B3LYP/6-31G(d) empiricaldispersion=gd3bj scf=xqc

CID_43086234_JID_6195_neutraal

0 1
C          1.04440        0.05106       -0.07363
C          1.09966        1.31278        0.78246
N          2.06015        2.29820        0.29983
C          1.79484        3.67698        0.71746
C          1.49132        3.89945        2.19720
C          3.47415        1.92100        0.24480
C          4.34476        2.01839        1.50800
C          4.04519        1.03814        2.64584
N          4.21616       -0.35344        2.21943
C          4.05939       -1.30939        3.33871
C          2.61154       -1.54298        3.76781
C          4.80948       -2.64339        3.06276
O          5.70055       -2.98171        3.85391
N          4.45654       -3.47427        1.99789
C          3.64923       -3.07095        0.86121
C          5.29006       -4.64740        1.77379
H          0.84259        0.29701       -1.12213
H          0.23567       -0.59888        0.27726
H          1.96904       -0.52778       -0.03052
H          0.09245        1.74966        0.74736
H          1.28078        1.04064        1.82593
H          2.62280        4.33139        0.41610
H          0.93020        4.03634        0.14365
H          2.30371        3.55806        2.84266
H          1.34647        4.96903        2.38500
H          0.57160        3.39062        2.50367
H          3.58883        0.92707       -0.20081
H          3.93998        2.58105       -0.50108
H          5.38898        1.86842        1.19820
H          4.31302        3.04105        1.90151
H          4.74961        1.25867        3.45822
H          3.04167        1.21114        3.04340
H          3.53349       -0.56023        1.49790
H          4.58713       -0.89222        4.20891
H          1.94656       -1.75542        2.92638
H          2.54567       -2.39005        4.46054
H          2.21315       -0.65993        4.28032
H          4.26879       -2.48494        0.17615
H          3.27266       -3.95739        0.34082
H          2.78670       -2.48605        1.16912
H          5.74600       -5.00944        2.69955
H          4.67749       -5.45312        1.35769
H          6.08235       -4.38431        1.06589

--Link1--
%chk=JID_6195.chk
%mem=8GB
%nprocshared=4
# B3LYP/6-311++G(d,p) empiricaldispersion=gd3bj scf=xqc pop=npa geom=check

CID_43086234_JID_6195_Energie_neutraal

0 1

--Link1--
%chk=JID_6195.chk
%mem=8GB
%nprocshared=4
# B3LYP/6-311++G(d,p) empiricaldispersion=gd3bj scf=xqc pop=npa geom=check

CID_43086234_JID_6195_Energie_kation

1 2

--Link1--
%chk=JID_6195.chk
%mem=8GB
%nprocshared=4
# B3LYP/6-311++G(d,p) empiricaldispersion=gd3bj scf=xqc pop=npa geom=check

CID_43086234_JID_6195_Energie_anion

-1 2
