%chk=JID_7867.chk
%mem=8GB
%nprocshared=4
# opt freq B3LYP/6-31G(d) empiricaldispersion=gd3bj scf=xqc

CID_58205323_JID_7867_neutraal

0 1
C          1.08199       -0.03297       -0.04681
C          1.13921       -1.22700        0.86261
C          0.65410       -2.42764        0.49463
C          0.69110       -3.64091        1.38803
C         -0.55547       -4.52234        1.23509
C         -0.44783       -5.77304        2.11005
C         -0.18124       -5.43416        3.58321
C          1.03202       -4.50110        3.73438
C          0.86485       -3.24787        2.86954
C          2.03982       -2.27786        3.01144
C          1.77947       -0.99436        2.21249
N          0.02318       -6.66308        4.34596
C         -0.11151       -6.85084        5.69058
O          0.45198       -7.79009        6.24469
C         -0.92936       -5.88984        6.47464
C         -2.23466       -5.75339        6.19245
C         -0.23983       -5.22295        7.61965
H          0.51770        0.77689        0.42673
H          0.59664       -0.26434       -1.00075
H          2.09251        0.32724       -0.26487
H          0.23519       -2.55898       -0.50112
H          1.55925       -4.23542        1.06814
H         -1.45645       -3.95872        1.50989
H         -0.67970       -4.82762        0.18884
H          0.35787       -6.41164        1.72400
H         -1.37137       -6.35888        2.02541
H         -1.06054       -4.91393        3.97510
H          1.15209       -4.21253        4.78545
H          1.95069       -5.03317        3.45329
H         -0.04165       -2.72635        3.21265
H          2.20585       -2.02185        4.06447
H          2.96168       -2.75325        2.65164
H          1.11998       -0.33882        2.79518
H          2.73091       -0.46381        2.08768
H          0.65195       -7.35046        3.94722
H         -2.87192       -5.09778        6.77646
H         -2.70070       -6.30949        5.38407
H          0.15574       -5.96496        8.32084
H          0.59205       -4.60976        7.25878
H         -0.91859       -4.56821        8.17625

--Link1--
%chk=JID_7867.chk
%mem=8GB
%nprocshared=4
# B3LYP/6-311++G(d,p) empiricaldispersion=gd3bj scf=xqc pop=npa geom=check

CID_58205323_JID_7867_Energie_neutraal

0 1

--Link1--
%chk=JID_7867.chk
%mem=8GB
%nprocshared=4
# B3LYP/6-311++G(d,p) empiricaldispersion=gd3bj scf=xqc pop=npa geom=check

CID_58205323_JID_7867_Energie_kation

1 2

--Link1--
%chk=JID_7867.chk
%mem=8GB
%nprocshared=4
# B3LYP/6-311++G(d,p) empiricaldispersion=gd3bj scf=xqc pop=npa geom=check

CID_58205323_JID_7867_Energie_anion

-1 2
