%chk=JID_9600.chk
%mem=8GB
%nprocshared=4
# opt freq B3LYP/6-31G(d) empiricaldispersion=gd3bj scf=xqc

CID_115558845_JID_9600_neutraal

0 1
C         -1.65000        0.08400        0.71500
C         -0.74111        1.28626        0.45688
C          0.22709        0.87148       -0.65803
C          1.70403        1.11284       -0.36246
N          2.22202       -0.14152        0.21321
C          1.14919       -1.15320        0.23891
C          0.10913       -0.64317       -0.76248
C         -1.33554       -0.92424       -0.38438
C          2.81320       -0.01917        1.49135
N          2.33539        0.91406        2.33570
C          2.88163        0.95783        3.55463
N          3.84937        0.16220        4.02136
C          4.32381       -0.75579        3.17441
C          3.84749       -0.90060        1.86597
C          4.42136       -1.88673        1.02130
C          5.46887       -2.69898        1.45288
C          5.87570       -2.59176        2.77795
C          5.32267       -1.61395        3.61259
N          5.93221       -3.74552        0.65054
H         -2.70828        0.36352        0.71756
H         -1.42568       -0.34456        1.69869
H         -1.33388        2.14929        0.13249
H         -0.22913        1.58408        1.37755
H         -0.07091        1.36456       -1.59101
H          1.86776        2.01527        0.23689
H          2.23533        1.26957       -1.30939
H          0.71500       -1.27310        1.24009
H          1.53077       -2.13125       -0.07444
H          0.34834       -0.99933       -1.77097
H         -1.49827       -1.95569       -0.05775
H         -1.98606       -0.73596       -1.24706
H          2.49757        1.71022        4.23465
H          4.04300       -1.99712        0.00771
H          6.63289       -3.26030        3.17855
H          5.67680       -1.52900        4.63736
H          5.83546       -3.57029       -0.34545
H          6.86481       -4.06680        0.89184

--Link1--
%chk=JID_9600.chk
%mem=8GB
%nprocshared=4
# B3LYP/6-311++G(d,p) empiricaldispersion=gd3bj scf=xqc pop=npa geom=check

CID_115558845_JID_9600_Energie_neutraal

0 1

--Link1--
%chk=JID_9600.chk
%mem=8GB
%nprocshared=4
# B3LYP/6-311++G(d,p) empiricaldispersion=gd3bj scf=xqc pop=npa geom=check

CID_115558845_JID_9600_Energie_kation

1 2

--Link1--
%chk=JID_9600.chk
%mem=8GB
%nprocshared=4
# B3LYP/6-311++G(d,p) empiricaldispersion=gd3bj scf=xqc pop=npa geom=check

CID_115558845_JID_9600_Energie_anion

-1 2
