%chk=JID_3755.chk
%mem=8GB
%nprocshared=4
# opt freq B3LYP/6-31G(d) empiricaldispersion=gd3bj scf=xqc

CID_151972919_JID_3755_neutraal

0 1
C          0.96657        0.03917        0.08572
C          0.52053        0.07019        1.53922
C          0.92928        1.34740        2.27693
C          0.39237        2.65395        1.68420
C         -1.13115        2.74295        1.55242
C         -1.92140        2.56824        2.85541
C         -1.59752        3.58223        3.95820
C         -1.89270        5.00551        3.57225
N         -0.83657        5.80560        3.30241
N         -1.03807        7.10184        2.92587
C         -2.29548        7.57223        2.82399
C         -3.40234        6.79207        3.08836
C         -3.19595        5.47410        3.47266
H          0.45452        0.80168       -0.50834
H          0.73555       -0.93511       -0.35693
H          2.04584        0.20130        0.00233
H         -0.56441       -0.07113        1.59150
H          0.96836       -0.78541        2.05920
H          0.61327        1.26387        3.32343
H          2.02497        1.40637        2.29830
H          0.75606        3.48686        2.29714
H          0.83430        2.80884        0.69245
H         -1.38252        3.71133        1.10271
H         -1.47768        1.98940        0.83518
H         -2.99066        2.62297        2.61377
H         -1.75542        1.55896        3.24997
H         -2.18370        3.33738        4.85305
H         -0.54698        3.49286        4.25824
H         -2.38223        8.60841        2.51880
H         -4.40241        7.19901        2.99583
H         -4.03920        4.82622        3.68639

--Link1--
%chk=JID_3755.chk
%mem=8GB
%nprocshared=4
# B3LYP/6-311++G(d,p) empiricaldispersion=gd3bj scf=xqc pop=npa geom=check

CID_151972919_JID_3755_Energie_neutraal

0 1

--Link1--
%chk=JID_3755.chk
%mem=8GB
%nprocshared=4
# B3LYP/6-311++G(d,p) empiricaldispersion=gd3bj scf=xqc pop=npa geom=check

CID_151972919_JID_3755_Energie_kation

1 2

--Link1--
%chk=JID_3755.chk
%mem=8GB
%nprocshared=4
# B3LYP/6-311++G(d,p) empiricaldispersion=gd3bj scf=xqc pop=npa geom=check

CID_151972919_JID_3755_Energie_anion

-1 2
