%chk=JID_5690.chk
%mem=8GB
%nprocshared=4
# opt freq B3LYP/6-31G(d) empiricaldispersion=gd3bj scf=xqc

CID_63399935_JID_5690_neutraal

0 1
C          0.99947        0.07495        0.06620
C          0.78941        0.04666       -1.44035
C          1.17887       -1.28921       -2.08611
C          0.35371       -2.51282       -1.63011
C         -1.17077       -2.36191       -1.87629
C         -1.65961       -1.93311       -3.27111
C         -1.44288       -2.90105       -4.44351
C         -2.52849       -3.98310       -4.70682
C         -3.85763       -3.33384       -5.13453
C         -2.03530       -4.87426       -5.86642
C         -2.78247       -4.87888       -3.48780
N          0.85528       -3.73211       -2.28184
C          2.05649       -4.30643       -1.67361
C          1.82587       -5.04656       -0.34955
C          0.86031       -6.21818       -0.46176
H          0.31908       -0.61106        0.57888
H          0.80823        1.08113        0.45288
H          2.02740       -0.19754        0.32528
H         -0.24981        0.30302       -1.66989
H          1.40649        0.83491       -1.88889
H          1.10847       -1.18106       -3.17597
H          2.24194       -1.45732       -1.87495
H          0.46383       -2.62715       -0.54607
H         -1.67079       -3.28690       -1.57122
H         -1.54130       -1.60860       -1.16755
H         -2.72354       -1.68443       -3.19300
H         -1.17063       -0.98608       -3.52833
H         -1.38064       -2.28241       -5.35096
H         -0.46083       -3.37453       -4.36895
H         -3.71561       -2.66945       -5.99415
H         -4.59188       -4.09497       -5.42340
H         -4.30404       -2.74667       -4.32601
H         -1.09981       -5.38157       -5.60439
H         -2.77175       -5.64619       -6.11743
H         -1.85365       -4.28297       -6.77107
H         -1.85054       -5.31050       -3.10911
H         -3.26667       -4.32736       -2.67623
H         -3.44835       -5.71156       -3.74377
H          0.12468       -4.44085       -2.30721
H          2.47511       -5.01882       -2.39491
H          2.82987       -3.54396       -1.53337
H          2.79290       -5.42931       -0.00079
H          1.47091       -4.35735        0.42422
H          1.17154       -6.91052       -1.25033
H          0.83123       -6.77168        0.48237
H         -0.15803       -5.88097       -0.67722

--Link1--
%chk=JID_5690.chk
%mem=8GB
%nprocshared=4
# B3LYP/6-311++G(d,p) empiricaldispersion=gd3bj scf=xqc pop=npa geom=check

CID_63399935_JID_5690_Energie_neutraal

0 1

--Link1--
%chk=JID_5690.chk
%mem=8GB
%nprocshared=4
# B3LYP/6-311++G(d,p) empiricaldispersion=gd3bj scf=xqc pop=npa geom=check

CID_63399935_JID_5690_Energie_kation

1 2

--Link1--
%chk=JID_5690.chk
%mem=8GB
%nprocshared=4
# B3LYP/6-311++G(d,p) empiricaldispersion=gd3bj scf=xqc pop=npa geom=check

CID_63399935_JID_5690_Energie_anion

-1 2
