%chk=JID_2940.chk
%mem=8GB
%nprocshared=4
# opt freq B3LYP/6-31G(d) empiricaldispersion=gd3bj scf=xqc

CID_144524300_JID_2940_neutraal

0 1
C          1.00301       -0.09924       -0.01195
C          0.51194       -0.92158        1.16873
C          0.92468       -0.34527        2.52501
C          0.43419        1.07663        2.81722
C         -1.08088        1.28056        2.74818
C         -1.85270        0.42552        3.74081
C         -2.93839       -0.50388       -1.14938
N         -2.88121       -1.94254       -1.36825
C         -4.20956       -2.48871       -1.63079
C         -1.88047       -2.35927       -2.36518
C         -2.03051       -1.88009       -3.82211
S         -1.09234       -0.36392       -4.19974
H          0.51649        0.87981       -0.04927
H          0.78012       -0.61549       -0.95047
H          2.08568        0.05352        0.03888
H         -0.57664       -1.02887        1.11464
H          0.92586       -1.93372        1.08450
H          0.57478       -1.02132        3.31414
H          2.02020       -0.34936        2.59112
H          0.78415        1.36107        3.81777
H          0.91357        1.77671        2.12262
H         -1.29538        2.33556        2.95781
H         -1.44805        1.08684        1.73453
H         -1.49177        0.58630        4.76161
H         -2.91585        0.68500        3.71287
H         -1.76526       -0.63928        3.50595
H         -3.53485       -0.28128       -0.25730
H         -3.38939        0.02951       -1.99229
H         -1.94086       -0.09292       -0.96424
H         -4.66840       -2.06881       -2.53185
H         -4.16812       -3.57816       -1.73932
H         -4.87787       -2.28626       -0.78619
H         -0.87989       -2.11654       -1.98569
H         -1.89678       -3.45795       -2.38440
H         -1.63407       -2.65697       -4.48520
H         -3.07631       -1.72965       -4.10313
H         -1.81737        0.47317       -3.44790

--Link1--
%chk=JID_2940.chk
%mem=8GB
%nprocshared=4
# B3LYP/6-311++G(d,p) empiricaldispersion=gd3bj scf=xqc pop=npa geom=check

CID_144524300_JID_2940_Energie_neutraal

0 1

--Link1--
%chk=JID_2940.chk
%mem=8GB
%nprocshared=4
# B3LYP/6-311++G(d,p) empiricaldispersion=gd3bj scf=xqc pop=npa geom=check

CID_144524300_JID_2940_Energie_kation

1 2

--Link1--
%chk=JID_2940.chk
%mem=8GB
%nprocshared=4
# B3LYP/6-311++G(d,p) empiricaldispersion=gd3bj scf=xqc pop=npa geom=check

CID_144524300_JID_2940_Energie_anion

-1 2
