%chk=JID_10402.chk
%mem=8GB
%nprocshared=4
# opt freq B3LYP/6-31G(d) empiricaldispersion=gd3bj scf=xqc

CID_80427234_JID_10402_neutraal

0 1
C          0.92268       -0.05566       -0.03039
C          0.37288        0.19036       -1.42967
C          1.14370       -0.49193       -2.51137
N          1.59809       -1.73877       -2.35025
S          2.41592       -2.12808       -3.75176
C          2.07780       -0.61801       -4.49529
N          1.35054        0.16232       -3.72373
S          2.56096       -0.24105       -6.12606
C          2.73220        1.52159       -5.97170
N          3.72969        1.98806       -5.19198
C          3.91880        3.31469       -5.12172
C          4.94464        3.77838       -4.30947
C          5.23288        5.13828       -4.18252
C          4.48164        6.06612       -4.88715
C          3.44336        5.62853       -5.70889
C          3.13557        4.25171       -5.83815
C          2.09231        3.73968       -6.64976
C          1.91089        2.35163       -6.71587
C          1.19413        4.60525       -7.49837
N          1.72994        4.74660       -8.84491
H          0.85033       -1.11269        0.24685
H          0.35531        0.52299        0.70555
H          1.97460        0.24145        0.03897
H         -0.67128       -0.14003       -1.47473
H          0.37346        1.27058       -1.61975
H          5.54202        3.05536       -3.75789
H          6.04463        5.46346       -3.53730
H          4.70063        7.12730       -4.80015
H          2.87972        6.38302       -6.25033
H          1.14359        1.93202       -7.36027
H          0.19793        4.15008       -7.55756
H          1.03572        5.58747       -7.04308
H          1.15251        5.39810       -9.37256
H          2.66114        5.15784       -8.79692

--Link1--
%chk=JID_10402.chk
%mem=8GB
%nprocshared=4
# B3LYP/6-311++G(d,p) empiricaldispersion=gd3bj scf=xqc pop=npa geom=check

CID_80427234_JID_10402_Energie_neutraal

0 1

--Link1--
%chk=JID_10402.chk
%mem=8GB
%nprocshared=4
# B3LYP/6-311++G(d,p) empiricaldispersion=gd3bj scf=xqc pop=npa geom=check

CID_80427234_JID_10402_Energie_kation

1 2

--Link1--
%chk=JID_10402.chk
%mem=8GB
%nprocshared=4
# B3LYP/6-311++G(d,p) empiricaldispersion=gd3bj scf=xqc pop=npa geom=check

CID_80427234_JID_10402_Energie_anion

-1 2
