%chk=JID_4971.chk
%mem=8GB
%nprocshared=4
# opt freq B3LYP/6-31G(d) empiricaldispersion=gd3bj scf=xqc

CID_85401191_JID_4971_neutraal

0 1
C          1.06759        0.04157       -0.06085
C          0.91386        1.41938       -0.68610
C          1.27203        1.45824       -2.17361
C          0.43146        0.55315       -3.08006
C         -1.07971        0.80263       -3.04530
C         -1.52097        2.22294       -3.40977
C         -1.09087        2.71589       -4.79794
C         -1.54072        1.84448       -5.97850
C         -3.04319        1.53824       -6.07693
C         -3.98274        2.72419       -6.33931
C         -3.65787        3.65229       -7.51675
C         -3.78452        3.01439       -8.89004
O         -3.24956        0.53212       -7.07434
O         -1.57671        4.04413       -4.98194
H          0.34624       -0.66937       -0.47416
H          0.89525        0.09798        1.01879
H          2.07559       -0.35321       -0.22250
H         -0.10796        1.78095       -0.52844
H          1.57331        2.11702       -0.15563
H          1.20001        2.49460       -2.52385
H          2.32597        1.17513       -2.28968
H          0.79450        0.66189       -4.10896
H          0.61532       -0.49518       -2.81573
H         -1.56298        0.08641       -3.72017
H         -1.46367        0.56633       -2.04576
H         -2.61277        2.28979       -3.32066
H         -1.14844        2.92696       -2.65471
H          0.00224        2.78676       -4.83393
H         -1.21436        2.31492       -6.91481
H         -0.99925        0.89023       -5.94181
H         -3.37040        1.06787       -5.14378
H         -4.99814        2.33419       -6.48987
H         -4.02616        3.33934       -5.43244
H         -4.36105        4.49392       -7.47428
H         -2.65955        4.08759       -7.40907
H         -4.72166        2.45800       -8.98736
H         -3.77074        3.78975       -9.66337
H         -2.94938        2.34184       -9.09875
H         -2.69356        0.74583       -7.84087
H         -1.21526        4.59392       -4.26499

--Link1--
%chk=JID_4971.chk
%mem=8GB
%nprocshared=4
# B3LYP/6-311++G(d,p) empiricaldispersion=gd3bj scf=xqc pop=npa geom=check

CID_85401191_JID_4971_Energie_neutraal

0 1

--Link1--
%chk=JID_4971.chk
%mem=8GB
%nprocshared=4
# B3LYP/6-311++G(d,p) empiricaldispersion=gd3bj scf=xqc pop=npa geom=check

CID_85401191_JID_4971_Energie_kation

1 2

--Link1--
%chk=JID_4971.chk
%mem=8GB
%nprocshared=4
# B3LYP/6-311++G(d,p) empiricaldispersion=gd3bj scf=xqc pop=npa geom=check

CID_85401191_JID_4971_Energie_anion

-1 2
