%chk=JID_9410.chk
%mem=8GB
%nprocshared=4
# opt freq B3LYP/6-31G(d) empiricaldispersion=gd3bj scf=xqc

CID_10777392_JID_9410_neutraal

0 1
C          1.06919        0.01802        0.06991
O          0.69211       -0.09350       -1.30342
C          0.93398        1.02306       -2.03565
O          1.42859        2.05868       -1.62717
C          0.50055        0.79158       -3.42563
C          1.30029        1.16775       -4.54002
C          0.73911        0.96924       -5.81171
C         -0.53397        0.42068       -6.02175
C         -1.28559        0.05293       -4.90901
C         -0.78161        0.23863       -3.62847
N          1.64871        1.40023       -6.74623
C          2.77855        1.84731       -6.13106
C          2.62782        1.70374       -4.76114
C          3.70133        2.04698       -3.77428
N          4.61005        0.92634       -3.58985
C          5.77359        0.70185       -4.27614
C          6.29926       -0.44027       -3.71914
N          5.49703       -0.90316       -2.70874
C          4.49127       -0.05849       -2.65120
H          0.85310       -0.93578        0.55897
H          0.48530        0.80138        0.56308
H          2.14126        0.21874        0.16024
H         -0.92931        0.28059       -7.02382
H         -2.27643       -0.37480       -5.04460
H         -1.39711       -0.03853       -2.77460
H          1.49959        1.37240       -7.74596
H          3.61381        2.21030       -6.71647
H          4.30011        2.88889       -4.14431
H          3.33102        2.34393       -2.79664
H          6.11545        1.34448       -5.07457
H          7.21464       -0.95078       -3.98831
H          3.66527       -0.11406       -1.95606

--Link1--
%chk=JID_9410.chk
%mem=8GB
%nprocshared=4
# B3LYP/6-311++G(d,p) empiricaldispersion=gd3bj scf=xqc pop=npa geom=check

CID_10777392_JID_9410_Energie_neutraal

0 1

--Link1--
%chk=JID_9410.chk
%mem=8GB
%nprocshared=4
# B3LYP/6-311++G(d,p) empiricaldispersion=gd3bj scf=xqc pop=npa geom=check

CID_10777392_JID_9410_Energie_kation

1 2

--Link1--
%chk=JID_9410.chk
%mem=8GB
%nprocshared=4
# B3LYP/6-311++G(d,p) empiricaldispersion=gd3bj scf=xqc pop=npa geom=check

CID_10777392_JID_9410_Energie_anion

-1 2
