%chk=JID_4647.chk
%mem=8GB
%nprocshared=4
# opt freq B3LYP/6-31G(d) empiricaldispersion=gd3bj scf=xqc

CID_129798307_JID_4647_neutraal

0 1
C          2.20000        0.01800       -0.02000
N          0.76478       -0.13222        0.00499
C         -0.12901        0.90487        0.00082
N         -1.37110        0.47262       -0.01132
C         -1.28978       -0.90087       -0.01277
C          0.02745       -1.28557       -0.00427
N          0.61003       -2.57461       -0.00940
O          0.12550       -3.41139       -0.77633
O          1.59366       -2.74062        0.72237
S         -2.71667       -1.90590        0.01432
C         -4.03190       -0.65663        0.00622
C         -4.09294        0.18596        1.25622
O         -4.52957        1.32812        1.31222
O         -3.75742       -0.44457        2.40011
H          2.59188       -0.23491        0.96802
H          2.61437       -0.63909       -0.78861
H          2.45151        1.05452       -0.26076
H          0.17283        1.94570        0.00408
H         -3.89973       -0.00020       -0.85957
H         -4.99342       -1.16842       -0.09746
H         -3.88960        0.23925        3.08867

--Link1--
%chk=JID_4647.chk
%mem=8GB
%nprocshared=4
# B3LYP/6-311++G(d,p) empiricaldispersion=gd3bj scf=xqc pop=npa geom=check

CID_129798307_JID_4647_Energie_neutraal

0 1

--Link1--
%chk=JID_4647.chk
%mem=8GB
%nprocshared=4
# B3LYP/6-311++G(d,p) empiricaldispersion=gd3bj scf=xqc pop=npa geom=check

CID_129798307_JID_4647_Energie_kation

1 2

--Link1--
%chk=JID_4647.chk
%mem=8GB
%nprocshared=4
# B3LYP/6-311++G(d,p) empiricaldispersion=gd3bj scf=xqc pop=npa geom=check

CID_129798307_JID_4647_Energie_anion

-1 2
