%chk=JID_5102.chk
%mem=8GB
%nprocshared=4
# opt freq B3LYP/6-31G(d) empiricaldispersion=gd3bj scf=xqc

CID_151864538_JID_5102_neutraal

0 1
C          0.93199       -0.01230       -0.07228
C          0.13556        0.22165       -1.36429
C          0.37191       -0.94759       -2.32376
C         -1.34475        0.36645       -0.99198
O          0.69667        1.43783       -1.92154
C          0.13877        2.03793       -3.01009
O         -0.90479        1.69715       -3.55092
C          0.95555        3.25714       -3.44427
C          0.65830        4.47028       -2.53098
C          1.00426        4.31615       -1.03742
N          2.45283        4.08901       -0.87811
N          2.81174        3.73642        0.26231
N          3.13959        3.41046        1.30236
O          1.36466        5.61939       -3.03690
N          2.40038        2.92541       -3.57449
H          0.62482       -0.93291        0.43489
H          0.80205        0.82631        0.62193
H          2.00629       -0.07511       -0.28188
H          0.06663       -1.90026       -1.87850
H         -0.18373       -0.81859       -3.25824
H          1.43070       -1.01587       -2.59919
H         -1.52109        1.29991       -0.44657
H         -1.99178        0.38319       -1.87387
H         -1.68075       -0.47089       -0.37024
H          0.62795        3.50565       -4.46185
H         -0.41050        4.70480       -2.60422
H          0.75012        5.24818       -0.51714
H          0.42227        3.51146       -0.57654
H          2.27775        5.54304       -2.70037
H          2.86922        3.73503       -3.98064
H          2.78559        2.82694       -2.63216

--Link1--
%chk=JID_5102.chk
%mem=8GB
%nprocshared=4
# B3LYP/6-311++G(d,p) empiricaldispersion=gd3bj scf=xqc pop=npa geom=check

CID_151864538_JID_5102_Energie_neutraal

0 1

--Link1--
%chk=JID_5102.chk
%mem=8GB
%nprocshared=4
# B3LYP/6-311++G(d,p) empiricaldispersion=gd3bj scf=xqc pop=npa geom=check

CID_151864538_JID_5102_Energie_kation

1 2

--Link1--
%chk=JID_5102.chk
%mem=8GB
%nprocshared=4
# B3LYP/6-311++G(d,p) empiricaldispersion=gd3bj scf=xqc pop=npa geom=check

CID_151864538_JID_5102_Energie_anion

-1 2
