%chk=JID_5934.chk
%mem=8GB
%nprocshared=4
# opt freq B3LYP/6-31G(d) empiricaldispersion=gd3bj scf=xqc

CID_62067539_JID_5934_neutraal

0 1
C         -1.50500        0.02200       -0.20100
C         -0.60288        1.10802        0.37260
C          0.78503        1.07334       -0.26265
N          1.39705       -0.27956       -0.07791
C          0.55635       -1.32474       -0.72740
C         -0.83028       -1.34068       -0.08767
S          3.04564       -0.30593       -0.51782
O          3.13523       -0.61895       -1.92418
O          3.65759        0.88437        0.02905
N          3.61658       -1.57904        0.36452
C          3.64338       -1.53991        1.82869
C          4.08145       -2.94954        2.21611
C          3.47492       -3.83091        1.12536
C          3.66364       -2.96006       -0.13499
N          2.06133       -4.12827        1.40081
H         -2.46280        0.01114        0.33064
H         -1.72147        0.23987       -1.25390
H         -1.05936        2.09105        0.21186
H         -0.51204        0.96726        1.45702
H          0.72434        1.31446       -1.33060
H          1.39337        1.83792        0.23092
H          0.99452       -2.31233       -0.59067
H          0.47244       -1.13101       -1.80310
H         -0.74323       -1.61640        0.97093
H         -1.45263       -2.10239       -0.57026
H          4.35390       -0.79591        2.19869
H          2.64783       -1.32264        2.22858
H          3.76979       -3.21964        3.23003
H          5.17602       -3.02093        2.17602
H          4.01126       -4.78001        1.02719
H          2.92169       -3.17857       -0.90544
H          4.65664       -3.13595       -0.56479
H          1.98241       -4.60190        2.30047
H          1.53919       -3.25648        1.49255

--Link1--
%chk=JID_5934.chk
%mem=8GB
%nprocshared=4
# B3LYP/6-311++G(d,p) empiricaldispersion=gd3bj scf=xqc pop=npa geom=check

CID_62067539_JID_5934_Energie_neutraal

0 1

--Link1--
%chk=JID_5934.chk
%mem=8GB
%nprocshared=4
# B3LYP/6-311++G(d,p) empiricaldispersion=gd3bj scf=xqc pop=npa geom=check

CID_62067539_JID_5934_Energie_kation

1 2

--Link1--
%chk=JID_5934.chk
%mem=8GB
%nprocshared=4
# B3LYP/6-311++G(d,p) empiricaldispersion=gd3bj scf=xqc pop=npa geom=check

CID_62067539_JID_5934_Energie_anion

-1 2
