%chk=JID_10262.chk
%mem=8GB
%nprocshared=4
# opt freq B3LYP/6-31G(d) empiricaldispersion=gd3bj scf=xqc

CID_63979105_JID_10262_neutraal

0 1
C          0.94491       -0.04363       -0.07114
C          0.57500        1.28431        0.57523
C          1.13659        2.50603       -0.15984
N          0.54705        2.64052       -1.49500
C          0.99888        3.87337       -2.16243
C          2.44740        3.85198       -2.61085
N          3.34454        4.52585       -1.84572
C          4.65193        4.52568       -2.18647
C          5.08085        3.79898       -3.29782
C          4.16262        3.10252       -4.08140
C          2.82124        3.13026       -3.73684
N          5.57178        5.21705       -1.38839
C          5.03928        5.77662       -0.13617
C          4.37711        7.13789       -0.36336
C          5.31630        8.10614       -1.10514
C          5.86346        7.45229       -2.38250
C          6.51757        6.10461       -2.07380
C          4.60841        9.42390       -1.43391
O          4.25514       10.08039       -0.21664
C          3.56328       11.29800       -0.45909
H          0.48538       -0.15360       -1.05788
H          0.59530       -0.87368        0.55124
H          2.02988       -0.13715       -0.18177
H         -0.51660        1.36021        0.65027
H          0.96146        1.29074        1.60164
H          0.90440        3.39576        0.43766
H          2.22753        2.41744       -0.21792
H          0.82066        1.84195       -2.06355
H          0.36940        4.03272       -3.04649
H          0.82239        4.74276       -1.51658
H          6.13414        3.73780       -3.54660
H          4.49980        2.53390       -4.94269
H          2.08743        2.59074       -4.32556
H          5.87819        5.90468        0.56051
H          4.35034        5.08456        0.36414
H          4.09001        7.55944        0.60717
H          3.45101        7.01483       -0.93756
H          6.15816        8.32676       -0.43421
H          5.05199        7.31437       -3.10841
H          6.60264        8.11282       -2.85107
H          6.92595        5.67031       -2.99188
H          7.38149        6.26488       -1.41575
H          5.27843       10.07604       -2.00671
H          3.70626        9.23873       -2.02951
H          4.19168       11.98897       -1.02926
H          2.62901       11.10727       -0.99585
H          3.32503       11.75644        0.50437

--Link1--
%chk=JID_10262.chk
%mem=8GB
%nprocshared=4
# B3LYP/6-311++G(d,p) empiricaldispersion=gd3bj scf=xqc pop=npa geom=check

CID_63979105_JID_10262_Energie_neutraal

0 1

--Link1--
%chk=JID_10262.chk
%mem=8GB
%nprocshared=4
# B3LYP/6-311++G(d,p) empiricaldispersion=gd3bj scf=xqc pop=npa geom=check

CID_63979105_JID_10262_Energie_kation

1 2

--Link1--
%chk=JID_10262.chk
%mem=8GB
%nprocshared=4
# B3LYP/6-311++G(d,p) empiricaldispersion=gd3bj scf=xqc pop=npa geom=check

CID_63979105_JID_10262_Energie_anion

-1 2
