%chk=JID_1671.chk
%mem=8GB
%nprocshared=4
# opt freq B3LYP/6-31G(d) empiricaldispersion=gd3bj scf=xqc

CID_83177370_JID_1671_neutraal

0 1
C          1.07462       -0.05385       -0.03915
C          0.88640       -0.38187       -1.52172
C          1.40994       -1.79724       -1.86282
C          0.64458       -2.96290       -1.24094
O         -0.64545       -3.07019       -1.83505
N         -0.53520       -0.21370       -1.83956
C         -0.85529        0.75216       -2.88685
C         -0.30568        0.45541       -4.27975
C         -0.16188        1.82624       -4.93771
N         -0.63486        2.83380       -3.97703
C         -0.44988        2.21089       -2.65406
H          0.45300       -0.68306        0.60657
H          0.81053        0.99044        0.16364
H          2.11936       -0.19308        0.25889
H          1.51060        0.32186       -2.08464
H          1.39384       -1.91649       -2.95358
H          2.45975       -1.86412       -1.55137
H          1.17899       -3.89848       -1.43526
H          0.53243       -2.84914       -0.15934
H         -1.09950       -3.80620       -1.38763
H         -0.92385       -1.13141       -2.09495
H         -1.95221        0.74164       -2.96857
H         -0.98826       -0.19501       -4.83755
H          0.67234       -0.03518       -4.25385
H          0.88964        2.01984       -5.17842
H         -0.72825        1.88664       -5.87264
H         -1.63690        2.96781       -4.12184
H         -1.07541        2.69602       -1.89791
H          0.59623        2.32065       -2.35000

--Link1--
%chk=JID_1671.chk
%mem=8GB
%nprocshared=4
# B3LYP/6-311++G(d,p) empiricaldispersion=gd3bj scf=xqc pop=npa geom=check

CID_83177370_JID_1671_Energie_neutraal

0 1

--Link1--
%chk=JID_1671.chk
%mem=8GB
%nprocshared=4
# B3LYP/6-311++G(d,p) empiricaldispersion=gd3bj scf=xqc pop=npa geom=check

CID_83177370_JID_1671_Energie_kation

1 2

--Link1--
%chk=JID_1671.chk
%mem=8GB
%nprocshared=4
# B3LYP/6-311++G(d,p) empiricaldispersion=gd3bj scf=xqc pop=npa geom=check

CID_83177370_JID_1671_Energie_anion

-1 2
