%chk=JID_6995.chk
%mem=8GB
%nprocshared=4
# opt freq B3LYP/6-31G(d) empiricaldispersion=gd3bj scf=xqc

CID_64502177_JID_6995_neutraal

0 1
C          1.00947        0.05840        0.08062
C          0.35552        1.28429        0.70163
C          1.37550        2.33088        1.16817
C          2.21554        2.92045        0.02642
C          2.24028        4.43051        0.26171
C          0.88136        4.75840        0.95514
C          0.71094        3.52707        1.88034
C         -0.19378        4.75096       -0.21848
N         -1.58824        4.46333        0.13273
N          0.96766        6.07941        1.66756
C          1.95431        6.12321        2.77296
C          2.53728        7.52420        2.94693
C         -0.32267        6.61323        2.17138
C         -1.00146        7.65908        1.26183
O         -0.30617        8.90879        1.25152
C          0.59520        9.02202        0.15812
H          1.55792        0.31144       -0.83143
H          0.24648       -0.68086       -0.18354
H          1.70617       -0.41140        0.78218
H         -0.34042        1.72127       -0.02277
H         -0.24498        0.95964        1.56019
H          2.04918        1.84373        1.88620
H          3.23071        2.50818        0.02674
H          1.78736        2.69490       -0.95603
H          2.37440        4.98294       -0.67560
H          3.11682        4.65087        0.87494
H         -0.33177        3.33759        2.15461
H          1.24251        3.66687        2.82865
H         -0.13881        5.69921       -0.76580
H          0.07086        3.99826       -0.96759
H         -1.98758        5.22196        0.67470
H         -2.14094        4.41269       -0.72242
H          1.50713        5.78641        3.71767
H          2.80750        5.46214        2.60989
H          1.77516        8.26325        3.21007
H          3.28194        7.51953        3.74992
H          3.03787        7.85544        2.03111
H         -1.01167        5.79678        2.41043
H         -0.17531        7.12572        3.13174
H         -1.18145        7.30722        0.24346
H         -1.98841        7.87032        1.68969
H          1.10880        9.98396        0.23710
H          1.34556        8.22903        0.16825
H          0.04602        9.00167       -0.78838

--Link1--
%chk=JID_6995.chk
%mem=8GB
%nprocshared=4
# B3LYP/6-311++G(d,p) empiricaldispersion=gd3bj scf=xqc pop=npa geom=check

CID_64502177_JID_6995_Energie_neutraal

0 1

--Link1--
%chk=JID_6995.chk
%mem=8GB
%nprocshared=4
# B3LYP/6-311++G(d,p) empiricaldispersion=gd3bj scf=xqc pop=npa geom=check

CID_64502177_JID_6995_Energie_kation

1 2

--Link1--
%chk=JID_6995.chk
%mem=8GB
%nprocshared=4
# B3LYP/6-311++G(d,p) empiricaldispersion=gd3bj scf=xqc pop=npa geom=check

CID_64502177_JID_6995_Energie_anion

-1 2
