%chk=JID_3731.chk
%mem=8GB
%nprocshared=4
# opt freq B3LYP/6-31G(d) empiricaldispersion=gd3bj scf=xqc

CID_106222252_JID_3731_neutraal

0 1
C          0.93935        0.02777        0.07450
C          0.14888       -0.43239       -1.14596
C          0.65303       -1.76946       -1.70266
C          0.34107       -2.91064       -0.83359
N          0.08150       -3.79449       -0.12686
C          0.16695       -2.02813       -3.12122
O          0.97989       -2.10968       -4.04809
N         -1.15128       -2.14288       -3.44368
C         -2.34311       -2.18234       -2.61013
C         -3.23233       -0.95653       -2.82783
C         -3.90785       -0.91388       -4.20034
C         -4.90538       -1.98295       -4.35709
C         -5.72082       -2.85586       -4.48181
H          0.83132       -0.67347        0.90766
H          0.57720        1.00499        0.40971
H          2.00411        0.12503       -0.16016
H         -0.90770       -0.48558       -0.86496
H          0.22794        0.33994       -1.92140
H          1.74817       -1.70542       -1.77683
H         -1.27998       -2.34824       -4.42967
H         -2.87261       -3.10880       -2.85368
H         -2.06815       -2.24205       -1.55710
H         -4.00156       -0.93855       -2.04537
H         -2.63176       -0.04667       -2.70626
H         -4.40856        0.05503       -4.31443
H         -3.16126       -0.97611       -4.99955
H         -6.44590       -3.62964       -4.59115

--Link1--
%chk=JID_3731.chk
%mem=8GB
%nprocshared=4
# B3LYP/6-311++G(d,p) empiricaldispersion=gd3bj scf=xqc pop=npa geom=check

CID_106222252_JID_3731_Energie_neutraal

0 1

--Link1--
%chk=JID_3731.chk
%mem=8GB
%nprocshared=4
# B3LYP/6-311++G(d,p) empiricaldispersion=gd3bj scf=xqc pop=npa geom=check

CID_106222252_JID_3731_Energie_kation

1 2

--Link1--
%chk=JID_3731.chk
%mem=8GB
%nprocshared=4
# B3LYP/6-311++G(d,p) empiricaldispersion=gd3bj scf=xqc pop=npa geom=check

CID_106222252_JID_3731_Energie_anion

-1 2
