%chk=JID_2186.chk
%mem=8GB
%nprocshared=4
# opt freq B3LYP/6-31G(d) empiricaldispersion=gd3bj scf=xqc

CID_149008684_JID_2186_neutraal

0 1
C          0.96847        0.00435       -0.09480
C          0.24595       -0.76357        1.01660
C          0.44777       -0.04404        2.35524
C         -1.25471       -1.05834        0.72925
C         -1.43393       -1.98740       -0.49719
C         -1.68588       -1.25308       -1.81026
N         -2.21142       -0.06772       -1.93414
C         -2.47356        0.52976       -0.75222
C         -2.09195        0.15967        0.51903
C         -2.66225        1.08727        1.42363
C         -3.34560        2.01828        0.66882
N         -3.21511        1.67213       -0.65364
H          0.54235        1.00142       -0.24424
H          0.92922       -0.53492       -1.04548
H          2.02701        0.13417        0.15708
H          0.74921       -1.73592        1.11244
H          0.09068        0.98972        2.32156
H         -0.07519       -0.56523        3.16376
H          1.51164       -0.01408        2.61567
H         -1.64878       -1.60090        1.60007
H         -2.30761       -2.63486       -0.34548
H         -0.57357       -2.65269       -0.62750
H         -1.46646       -1.81710       -2.73241
H         -2.58087        1.08653        2.50276
H         -3.91330        2.89297        0.95524
H         -3.61072        2.15907       -1.44472

--Link1--
%chk=JID_2186.chk
%mem=8GB
%nprocshared=4
# B3LYP/6-311++G(d,p) empiricaldispersion=gd3bj scf=xqc pop=npa geom=check

CID_149008684_JID_2186_Energie_neutraal

0 1

--Link1--
%chk=JID_2186.chk
%mem=8GB
%nprocshared=4
# B3LYP/6-311++G(d,p) empiricaldispersion=gd3bj scf=xqc pop=npa geom=check

CID_149008684_JID_2186_Energie_kation

1 2

--Link1--
%chk=JID_2186.chk
%mem=8GB
%nprocshared=4
# B3LYP/6-311++G(d,p) empiricaldispersion=gd3bj scf=xqc pop=npa geom=check

CID_149008684_JID_2186_Energie_anion

-1 2
