%chk=JID_8317.chk
%mem=8GB
%nprocshared=4
# opt freq B3LYP/6-31G(d) empiricaldispersion=gd3bj scf=xqc

CID_105983391_JID_8317_neutraal

0 1
C          1.06394       -0.00550       -0.07669
C          1.55782        0.09016        1.35913
N          1.52987        1.46445        1.85761
C          0.23375        1.97511        2.28271
C          2.63749        2.27149        1.59785
O          3.67919        1.82173        1.11329
C          2.52887        3.77237        1.89242
N          1.64166        4.40396        0.92713
C          0.67076        5.34068        1.10753
O         -0.00898        5.65222        0.13170
C          0.51273        6.00107        2.48137
C          1.62456        7.04402        2.67830
C          1.38881        8.31267        1.85525
C          0.02041        8.93238        2.15569
C         -1.11353        7.92357        1.94118
C         -0.87631        6.63253        2.73961
C         -2.02267        5.63752        2.54360
N         -0.20502       10.11231        1.32253
H          0.02659        0.33339       -0.16225
H          1.11261       -1.04145       -0.42599
H          1.67314        0.61059       -0.74605
H          0.94451       -0.53453        2.01795
H          2.58093       -0.29832        1.41407
H          0.34462        2.82759        2.95336
H         -0.33638        2.27804        1.40015
H         -0.31042        1.19335        2.82064
H          2.22611        3.93504        2.92703
H          3.51806        4.22348        1.76059
H          1.70608        4.07868       -0.03229
H          0.63460        5.21949        3.23868
H          1.67367        7.31511        3.74079
H          2.60471        6.62931        2.41751
H          1.47420        8.07683        0.78670
H          2.18375        9.03458        2.08055
H          0.00528        9.25667        3.20365
H         -1.22290        7.69567        0.87399
H         -2.06512        8.37290        2.25508
H         -0.89536        6.91345        3.80328
H         -1.84473        4.72165        3.11704
H         -2.96681        6.06955        2.89262
H         -2.15715        5.36180        1.49368
H          0.58893       10.74660        1.39773
H         -0.24860        9.83301        0.34162

--Link1--
%chk=JID_8317.chk
%mem=8GB
%nprocshared=4
# B3LYP/6-311++G(d,p) empiricaldispersion=gd3bj scf=xqc pop=npa geom=check

CID_105983391_JID_8317_Energie_neutraal

0 1

--Link1--
%chk=JID_8317.chk
%mem=8GB
%nprocshared=4
# B3LYP/6-311++G(d,p) empiricaldispersion=gd3bj scf=xqc pop=npa geom=check

CID_105983391_JID_8317_Energie_kation

1 2

--Link1--
%chk=JID_8317.chk
%mem=8GB
%nprocshared=4
# B3LYP/6-311++G(d,p) empiricaldispersion=gd3bj scf=xqc pop=npa geom=check

CID_105983391_JID_8317_Energie_anion

-1 2
