%chk=JID_7356.chk
%mem=8GB
%nprocshared=4
# opt freq B3LYP/6-31G(d) empiricaldispersion=gd3bj scf=xqc

CID_108019810_JID_7356_neutraal

0 1
C          0.93376        0.03907        0.06392
C         -0.37009        0.03907        0.06392
C         -1.89009        0.03907        0.06392
C         -2.54937       -1.33177        0.17274
O         -3.08599       -1.69654        1.22278
N         -2.75375       -2.07319       -0.96748
C         -1.91839       -2.23050       -2.08365
C         -2.49571       -2.46702       -3.33087
C         -1.68711       -2.64130       -4.46451
C         -0.29070       -2.63404       -4.35538
C          0.27584       -2.45991       -3.08966
C         -0.53324       -2.28112       -1.96466
C          0.61536       -2.75489       -5.50581
C          0.36001       -3.46673       -6.61380
C          1.30440       -3.57797       -7.73486
O          1.08520       -4.20470       -8.75598
O          2.46046       -2.92393       -7.54522
H          1.99963        0.04541        0.06839
H         -2.23945        0.64936        0.90514
H         -2.24849        0.52837       -0.84930
H         -3.51602       -2.73717       -0.88950
H         -3.57649       -2.47203       -3.44778
H         -2.16834       -2.76524       -5.43151
H          1.35579       -2.48369       -2.95667
H         -0.05617       -2.25543       -0.99107
H          1.56468       -2.23100       -5.40376
H         -0.55966       -4.02270       -6.75014
H          2.96694       -3.09917       -8.36516

--Link1--
%chk=JID_7356.chk
%mem=8GB
%nprocshared=4
# B3LYP/6-311++G(d,p) empiricaldispersion=gd3bj scf=xqc pop=npa geom=check

CID_108019810_JID_7356_Energie_neutraal

0 1

--Link1--
%chk=JID_7356.chk
%mem=8GB
%nprocshared=4
# B3LYP/6-311++G(d,p) empiricaldispersion=gd3bj scf=xqc pop=npa geom=check

CID_108019810_JID_7356_Energie_kation

1 2

--Link1--
%chk=JID_7356.chk
%mem=8GB
%nprocshared=4
# B3LYP/6-311++G(d,p) empiricaldispersion=gd3bj scf=xqc pop=npa geom=check

CID_108019810_JID_7356_Energie_anion

-1 2
