%chk=JID_6501.chk
%mem=8GB
%nprocshared=4
# opt freq B3LYP/6-31G(d) empiricaldispersion=gd3bj scf=xqc

CID_63708021_JID_6501_neutraal

0 1
C          1.06446        0.00852        0.07597
N          0.46501        1.04475       -0.78406
C         -0.94266        0.71229       -1.06222
C         -1.86977        0.93334        0.15732
C         -3.32591        0.60815       -0.21265
C         -4.26307        0.93507        0.94285
O         -4.13591        2.30254        1.32656
C         -2.81937        2.61077        1.78349
C         -1.79078        2.37591        0.68551
C          1.32165        1.28383       -1.98719
C          2.49373        2.21628       -1.59212
C          2.12565        3.68842       -1.38287
C          1.91874        4.41699       -2.70785
C          0.52257        4.28156       -3.31139
N         -0.16763        3.00960       -3.17262
C          0.65329        1.80831       -3.30494
H          1.03735       -0.97852       -0.40008
H          0.54769       -0.05872        1.03788
H          2.10588        0.23148        0.32479
H         -1.35447        1.34016       -1.85339
H         -1.02959       -0.32120       -1.42247
H         -1.58198        0.25159        0.96710
H         -3.61943        1.20609       -1.08499
H         -3.42441       -0.44782       -0.48740
H         -5.30112        0.77102        0.63672
H         -4.06848        0.29238        1.80942
H         -2.59380        2.01269        2.67429
H         -2.80902        3.66371        2.08299
H         -0.79039        2.59794        1.07260
H         -1.98764        3.07175       -0.14015
H          1.76203        0.31714       -2.27262
H          2.97662        1.85900       -0.67593
H          3.27379        2.14347       -2.36184
H          1.25730        3.80009       -0.72390
H          2.96921        4.16751       -0.86970
H          2.10842        5.48674       -2.55090
H          2.66823        4.08456       -3.43687
H         -0.12327        5.04534       -2.86169
H          0.58818        4.53733       -4.37655
H         -0.93937        2.97840       -3.83714
H          1.40983        1.93819       -4.08980
H          0.00214        1.00595       -3.67633

--Link1--
%chk=JID_6501.chk
%mem=8GB
%nprocshared=4
# B3LYP/6-311++G(d,p) empiricaldispersion=gd3bj scf=xqc pop=npa geom=check

CID_63708021_JID_6501_Energie_neutraal

0 1

--Link1--
%chk=JID_6501.chk
%mem=8GB
%nprocshared=4
# B3LYP/6-311++G(d,p) empiricaldispersion=gd3bj scf=xqc pop=npa geom=check

CID_63708021_JID_6501_Energie_kation

1 2

--Link1--
%chk=JID_6501.chk
%mem=8GB
%nprocshared=4
# B3LYP/6-311++G(d,p) empiricaldispersion=gd3bj scf=xqc pop=npa geom=check

CID_63708021_JID_6501_Energie_anion

-1 2
