%chk=JID_7492.chk
%mem=8GB
%nprocshared=4
# opt freq B3LYP/6-31G(d) empiricaldispersion=gd3bj scf=xqc

CID_63839901_JID_7492_neutraal

0 1
C          0.98373       -0.09801       -0.01133
C          0.86218       -1.60027        0.19273
N          1.18503       -2.08749        1.52067
C          1.46117       -1.37463        2.65095
C          1.69042       -2.29470        3.65351
C          1.52395       -3.54302        3.01495
N          1.21630       -3.42000        1.72247
C          2.03385       -2.03397        5.07590
C          0.94184       -2.50577        6.01249
O          0.96307       -3.63071        6.51578
C         -0.18596       -1.57337        6.30366
N         -0.13145       -0.34051        5.74054
C         -1.15850        0.49298        6.00943
C         -2.23350        0.16066        6.81975
C         -2.27561       -1.11213        7.39106
C         -1.22265       -1.99283        7.13280
C         -3.39754       -1.50110        8.30552
H          0.29228        0.44832        0.63861
H          0.74573        0.16142       -1.04780
H          2.00008        0.25031        0.20021
H         -0.16429       -1.92144       -0.01731
H          1.53345       -2.11680       -0.50312
H          1.46932       -0.29404        2.66827
H          1.61093       -4.53460        3.44283
H          2.95350       -2.57199        5.33852
H          2.25605       -0.97561        5.25063
H         -1.09504        1.47283        5.54373
H         -3.02208        0.88475        6.99958
H         -1.20793       -2.98910        7.56612
H         -3.48763       -2.58984        8.38051
H         -3.22163       -1.09558        9.30671
H         -4.35225       -1.11986        7.92839

--Link1--
%chk=JID_7492.chk
%mem=8GB
%nprocshared=4
# B3LYP/6-311++G(d,p) empiricaldispersion=gd3bj scf=xqc pop=npa geom=check

CID_63839901_JID_7492_Energie_neutraal

0 1

--Link1--
%chk=JID_7492.chk
%mem=8GB
%nprocshared=4
# B3LYP/6-311++G(d,p) empiricaldispersion=gd3bj scf=xqc pop=npa geom=check

CID_63839901_JID_7492_Energie_kation

1 2

--Link1--
%chk=JID_7492.chk
%mem=8GB
%nprocshared=4
# B3LYP/6-311++G(d,p) empiricaldispersion=gd3bj scf=xqc pop=npa geom=check

CID_63839901_JID_7492_Energie_anion

-1 2
