%chk=JID_7124.chk
%mem=8GB
%nprocshared=4
# opt freq B3LYP/6-31G(d) empiricaldispersion=gd3bj scf=xqc

CID_125461517_JID_7124_neutraal

0 1
C          0.90245       -0.01721       -0.01371
C          0.06376       -0.99851        0.81950
C          0.25576       -0.67413        2.30480
C         -1.40253       -0.87280        0.39152
O          0.60417       -2.30664        0.50454
C          0.06045       -3.42566        1.04881
O         -0.89680       -3.50004        1.80300
N          0.79072       -4.56953        0.63533
C          1.93071       -4.54939       -0.16905
C          2.39606       -5.82761       -0.35549
C          1.52431       -6.68565        0.33882
C          0.53483       -5.91759        0.93202
C         -0.57152       -6.29640        1.73786
C         -1.42470       -7.28932        1.44356
C         -1.48036       -8.13206        0.24317
O         -1.80637       -9.30603        0.24330
O         -1.25278       -7.46427       -0.89603
H          0.59462        1.02111        0.14837
H          0.81521       -0.24165       -1.08324
H          1.96663       -0.10576        0.23446
H         -0.01337        0.36447        2.52487
H         -0.35711       -1.31690        2.94420
H          1.29711       -0.83537        2.60601
H         -1.53678       -1.21096       -0.64197
H         -2.06434       -1.48455        1.01182
H         -1.75166        0.16273        0.46794
H          2.31965       -3.60904       -0.53695
H          3.26959       -6.10815       -0.92991
H          1.60262       -7.76406        0.40296
H         -0.71978       -5.76979        2.67948
H         -2.18704       -7.55150        2.17116
H         -1.35648       -8.14072       -1.59477

--Link1--
%chk=JID_7124.chk
%mem=8GB
%nprocshared=4
# B3LYP/6-311++G(d,p) empiricaldispersion=gd3bj scf=xqc pop=npa geom=check

CID_125461517_JID_7124_Energie_neutraal

0 1

--Link1--
%chk=JID_7124.chk
%mem=8GB
%nprocshared=4
# B3LYP/6-311++G(d,p) empiricaldispersion=gd3bj scf=xqc pop=npa geom=check

CID_125461517_JID_7124_Energie_kation

1 2

--Link1--
%chk=JID_7124.chk
%mem=8GB
%nprocshared=4
# B3LYP/6-311++G(d,p) empiricaldispersion=gd3bj scf=xqc pop=npa geom=check

CID_125461517_JID_7124_Energie_anion

-1 2
