%chk=JID_10981.chk
%mem=8GB
%nprocshared=4
# opt freq B3LYP/6-31G(d) empiricaldispersion=gd3bj scf=xqc

CID_106749446_JID_10981_neutraal

0 1
C         -0.02900        0.88300        0.00000
C         -0.27833        0.08463       -1.24310
C          0.76902       -0.36745       -0.25809
N          2.14818       -0.27867       -0.60763
C          3.24932       -0.70478        0.07825
O          4.36823       -0.45486       -0.37383
C          3.09017       -1.44987        1.38650
C          3.46600       -0.57579        2.58410
C          2.40558        0.46804        2.93879
N          1.24420       -0.17407        3.54989
C          0.05436        0.53764        3.71269
C         -1.13011       -0.18369        3.95499
C         -2.36717        0.44057        4.19389
C         -2.40201        1.84280        4.11891
C         -1.22958        2.58893        3.92835
C         -0.00924        1.93256        3.75171
N         -3.65847        2.57529        4.27827
O         -4.53996        2.07050        4.99239
O         -3.75867        3.67108        3.70607
N         -3.51481       -0.37420        4.24758
H         -0.78583        0.85429        0.77515
H          0.46330        1.84298       -0.10124
H         -1.19851       -0.48660       -1.30091
H          0.03687        0.50646       -2.18990
H          0.49822       -1.25814        0.30153
H          2.39068        0.20608       -1.46587
H          2.09770       -1.88828        1.49550
H          3.78163       -2.30115        1.33821
H          3.64528       -1.22262        3.45200
H          4.40937       -0.05671        2.37418
H          2.84160        1.16938        3.66007
H          2.12501        1.03704        2.04649
H          1.08563       -1.13191        3.25190
H         -1.08906       -1.27138        3.94719
H         -1.25152        3.67687        3.91538
H          0.88527        2.53645        3.62637
H         -3.35005       -1.29916        4.63537
H         -4.31025        0.08109        4.70579

--Link1--
%chk=JID_10981.chk
%mem=8GB
%nprocshared=4
# B3LYP/6-311++G(d,p) empiricaldispersion=gd3bj scf=xqc pop=npa geom=check

CID_106749446_JID_10981_Energie_neutraal

0 1

--Link1--
%chk=JID_10981.chk
%mem=8GB
%nprocshared=4
# B3LYP/6-311++G(d,p) empiricaldispersion=gd3bj scf=xqc pop=npa geom=check

CID_106749446_JID_10981_Energie_kation

1 2

--Link1--
%chk=JID_10981.chk
%mem=8GB
%nprocshared=4
# B3LYP/6-311++G(d,p) empiricaldispersion=gd3bj scf=xqc pop=npa geom=check

CID_106749446_JID_10981_Energie_anion

-1 2
