%chk=JID_5524.chk
%mem=8GB
%nprocshared=4
# opt freq B3LYP/6-31G(d) empiricaldispersion=gd3bj scf=xqc

CID_61934467_JID_5524_neutraal

0 1
C          0.99514       -0.07735        0.06320
C          0.62621        1.28886        0.64733
C          1.44103        2.37692       -0.04932
N         -0.82069        1.44415        0.54164
C         -1.39603        2.69986        1.06283
C         -1.64019        3.80881        0.01663
S         -2.85717        3.42955       -1.29823
C         -1.87528        2.57533       -2.47186
C         -0.83727        3.09573       -3.21421
C         -0.24614        2.12056       -4.07191
C         -0.86792        0.89651       -3.96533
S         -2.15906        0.93071       -2.84478
C         -2.71298        2.43887        1.80630
O         -3.23312        3.21472        2.59705
O         -3.33448        1.28263        1.49722
H          0.76862       -0.13331       -1.00758
H          0.44896       -0.88225        0.56813
H          2.06480       -0.27676        0.19074
H          0.89927        1.27799        1.70974
H          1.18124        2.45974       -1.10846
H          1.29447        3.35283        0.42319
H          2.51195        2.15243        0.01117
H         -1.18159        1.23502       -0.38817
H         -0.72237        3.08881        1.83824
H         -2.03145        4.69385        0.53280
H         -0.70150        4.12510       -0.44666
H         -0.50816        4.12548       -3.14792
H          0.58783        2.30939       -4.73684
H         -0.63497       -0.01601       -4.49705
H         -4.15184        1.29238        2.03357

--Link1--
%chk=JID_5524.chk
%mem=8GB
%nprocshared=4
# B3LYP/6-311++G(d,p) empiricaldispersion=gd3bj scf=xqc pop=npa geom=check

CID_61934467_JID_5524_Energie_neutraal

0 1

--Link1--
%chk=JID_5524.chk
%mem=8GB
%nprocshared=4
# B3LYP/6-311++G(d,p) empiricaldispersion=gd3bj scf=xqc pop=npa geom=check

CID_61934467_JID_5524_Energie_kation

1 2

--Link1--
%chk=JID_5524.chk
%mem=8GB
%nprocshared=4
# B3LYP/6-311++G(d,p) empiricaldispersion=gd3bj scf=xqc pop=npa geom=check

CID_61934467_JID_5524_Energie_anion

-1 2
