%chk=JID_6070.chk
%mem=8GB
%nprocshared=4
# opt freq B3LYP/6-31G(d) empiricaldispersion=gd3bj scf=xqc

CID_151975179_JID_6070_neutraal

0 1
C          0.96787       -0.00562        0.09453
C          0.46487       -1.06299       -0.87836
C          1.04537       -2.45981       -0.60836
C          0.69034       -3.05683        0.76745
C         -0.79582       -3.11655        1.15362
C         -1.69829       -4.04034        0.31961
C         -1.26658       -5.51633        0.28747
C         -1.32067       -6.18848        1.65799
S         -2.17057       -6.51382       -0.97721
C         -3.91449       -6.08467       -0.68532
C         -4.45018       -6.60586        0.61964
O         -4.89770       -5.92451        1.52993
O         -4.44381       -7.94995        0.71923
N          0.58020       -3.38134       -1.65818
N          1.27924       -3.45150       -2.68554
N          1.92116       -3.50804       -3.62491
H          0.61855       -0.19860        1.11294
H          0.59870        0.98179       -0.20085
H          2.06174        0.03114        0.10369
H         -0.63086       -1.08743       -0.86484
H          0.74289       -0.75052       -1.89316
H          2.14214       -2.39269       -0.65013
H          1.12772       -4.05924        0.84604
H          1.20081       -2.46186        1.53591
H         -0.85711       -3.42657        2.20431
H         -1.22017       -2.10601        1.12963
H         -2.70603       -3.96407        0.74659
H         -1.77078       -3.64204       -0.69853
H         -0.22817       -5.57271       -0.05340
H         -2.29251       -6.06633        2.14228
H         -1.09701       -7.25897        1.59273
H         -0.57306       -5.75107        2.32853
H         -4.06360       -5.00350       -0.74368
H         -4.51770       -6.52135       -1.48871
H         -4.81283       -8.13401        1.60752

--Link1--
%chk=JID_6070.chk
%mem=8GB
%nprocshared=4
# B3LYP/6-311++G(d,p) empiricaldispersion=gd3bj scf=xqc pop=npa geom=check

CID_151975179_JID_6070_Energie_neutraal

0 1

--Link1--
%chk=JID_6070.chk
%mem=8GB
%nprocshared=4
# B3LYP/6-311++G(d,p) empiricaldispersion=gd3bj scf=xqc pop=npa geom=check

CID_151975179_JID_6070_Energie_kation

1 2

--Link1--
%chk=JID_6070.chk
%mem=8GB
%nprocshared=4
# B3LYP/6-311++G(d,p) empiricaldispersion=gd3bj scf=xqc pop=npa geom=check

CID_151975179_JID_6070_Energie_anion

-1 2
