%chk=JID_5503.chk
%mem=8GB
%nprocshared=4
# opt freq B3LYP/6-31G(d) empiricaldispersion=gd3bj scf=xqc

CID_62714225_JID_5503_neutraal

0 1
C          2.19400       -0.06300        0.00100
C          0.72338       -0.14747        0.08465
C         -0.16836       -1.19398        0.14049
C         -1.45834       -0.61181        0.20866
C         -1.27810        0.75635        0.20214
O          0.05484        1.03666        0.11086
C         -2.32261        1.85889        0.26128
C         -3.73305        1.58123       -0.21832
C         -3.49277        1.84985        1.23497
C         -3.73351        0.79849        2.27378
N         -2.74502        0.99688        3.32651
C         -2.83298        0.08487        4.48019
C         -2.63810       -1.38569        4.07461
C         -1.68630        0.48329        5.42978
C         -4.16354        0.25112        5.23171
H          2.49640        0.46280       -0.90979
H          2.59600        0.47818        0.86297
H          2.64432       -1.06027       -0.01557
H          0.07890       -2.24616        0.12654
H         -2.39900       -1.13990        0.24724
H         -1.90118        2.84472        0.08357
H         -4.21954        2.35429       -0.80367
H         -4.00157        0.57876       -0.52822
H         -3.80092        2.82216        1.61278
H         -4.74915        0.94024        2.65717
H         -3.68403       -0.20450        1.84553
H         -1.81424        0.91996        2.91118
H         -1.71400       -1.52259        3.50135
H         -2.57361       -2.02962        4.95959
H         -3.47056       -1.75762        3.46795
H         -1.77722        1.52774        5.75138
H         -1.68538       -0.13953        6.33196
H         -0.70741        0.36545        4.94945
H         -4.34494        1.30033        5.49256
H         -5.01567       -0.10259        4.64170
H         -4.15972       -0.32291        6.16578

--Link1--
%chk=JID_5503.chk
%mem=8GB
%nprocshared=4
# B3LYP/6-311++G(d,p) empiricaldispersion=gd3bj scf=xqc pop=npa geom=check

CID_62714225_JID_5503_Energie_neutraal

0 1

--Link1--
%chk=JID_5503.chk
%mem=8GB
%nprocshared=4
# B3LYP/6-311++G(d,p) empiricaldispersion=gd3bj scf=xqc pop=npa geom=check

CID_62714225_JID_5503_Energie_kation

1 2

--Link1--
%chk=JID_5503.chk
%mem=8GB
%nprocshared=4
# B3LYP/6-311++G(d,p) empiricaldispersion=gd3bj scf=xqc pop=npa geom=check

CID_62714225_JID_5503_Energie_anion

-1 2
