%chk=JID_2243.chk
%mem=8GB
%nprocshared=4
# opt freq B3LYP/6-31G(d) empiricaldispersion=gd3bj scf=xqc

CID_85836038_JID_2243_neutraal

0 1
C          0.92113        0.01634        0.05927
O          0.56054        0.38184       -1.26768
C          0.93565        1.62426       -1.69470
C          1.63478        2.56514       -1.04287
C          1.97764        3.89806       -1.64268
C          1.30040        5.16920       -1.05957
C         -0.22079        5.21459       -1.30864
C         -1.06065        4.46600       -0.27835
C         -0.71191        4.88685        1.14298
C          0.77156        4.70369        1.43398
C          1.64708        5.43524        0.41968
O          1.88050        6.25280       -1.82139
H          0.53349       -0.98903        0.24881
H          0.46913        0.69562        0.78975
H          2.00950       -0.01448        0.17486
H          0.56140        1.77325       -2.70310
H          2.02512        2.37680       -0.04947
H          3.06784        4.01902       -1.56807
H          1.78975        3.87496       -2.72603
H         -0.55105        6.26280       -1.31424
H         -0.45014        4.84310       -2.31538
H         -0.93074        3.38536       -0.38520
H         -2.12239        4.66589       -0.46505
H         -1.30214        4.30046        1.85629
H         -0.98668        5.93843        1.29131
H          1.01141        3.63711        1.45488
H          0.99259        5.08263        2.43893
H          2.70342        5.20453        0.60688
H          1.55619        6.51262        0.61731
H          1.47990        7.08566       -1.51841

--Link1--
%chk=JID_2243.chk
%mem=8GB
%nprocshared=4
# B3LYP/6-311++G(d,p) empiricaldispersion=gd3bj scf=xqc pop=npa geom=check

CID_85836038_JID_2243_Energie_neutraal

0 1

--Link1--
%chk=JID_2243.chk
%mem=8GB
%nprocshared=4
# B3LYP/6-311++G(d,p) empiricaldispersion=gd3bj scf=xqc pop=npa geom=check

CID_85836038_JID_2243_Energie_kation

1 2

--Link1--
%chk=JID_2243.chk
%mem=8GB
%nprocshared=4
# B3LYP/6-311++G(d,p) empiricaldispersion=gd3bj scf=xqc pop=npa geom=check

CID_85836038_JID_2243_Energie_anion

-1 2
