%chk=JID_9480.chk
%mem=8GB
%nprocshared=4
# opt freq B3LYP/6-31G(d) empiricaldispersion=gd3bj scf=xqc

CID_47001157_JID_9480_neutraal

0 1
C          1.05073       -0.05953        0.06231
C          0.13534        0.02459       -1.15343
C          0.38198       -1.09047       -2.16850
N          0.02502       -2.39851       -1.64897
C         -0.10374       -3.57626       -2.34033
O         -0.55977       -4.57342       -1.78903
C          0.30130       -3.64558       -3.76342
C         -0.62198       -4.03874       -4.75520
C         -0.15353       -4.20186       -6.07272
C          1.19775       -3.97710       -6.37827
C          2.09214       -3.57221       -5.38962
C          1.64871       -3.42101       -4.07947
N         -1.03036       -4.77545       -7.06880
C         -0.89751       -6.24438       -7.21760
S         -1.17200       -3.89159       -8.52291
O         -1.12995       -2.47485       -8.22314
O         -0.27817       -4.47707       -9.50099
C         -2.84768       -4.26843       -8.99207
C         -2.05903       -4.32211       -4.40511
H          0.87871       -0.97819        0.63113
H          0.86701        0.78788        0.73042
H          2.10299       -0.03249       -0.23815
H         -0.90886        0.00301       -0.82008
H          0.29802        0.99047       -1.64582
H         -0.21341       -0.91053       -3.07030
H          1.43690       -1.10947       -2.45887
H         -0.31242       -2.46861       -0.69598
H          1.56802       -4.13300       -7.38945
H          3.13755       -3.40693       -5.63761
H          2.36013       -3.16003       -3.29973
H         -1.69596       -6.64589       -7.84641
H          0.07156       -6.51305       -7.64935
H         -0.98936       -6.73218       -6.24106
H         -2.93635       -5.33112       -9.21968
H         -3.51659       -3.98099       -8.17884
H         -3.08274       -3.68553       -9.88573
H         -2.72304       -4.16640       -5.26165
H         -2.16543       -5.35593       -4.06261
H         -2.41966       -3.64410       -3.62473

--Link1--
%chk=JID_9480.chk
%mem=8GB
%nprocshared=4
# B3LYP/6-311++G(d,p) empiricaldispersion=gd3bj scf=xqc pop=npa geom=check

CID_47001157_JID_9480_Energie_neutraal

0 1

--Link1--
%chk=JID_9480.chk
%mem=8GB
%nprocshared=4
# B3LYP/6-311++G(d,p) empiricaldispersion=gd3bj scf=xqc pop=npa geom=check

CID_47001157_JID_9480_Energie_kation

1 2

--Link1--
%chk=JID_9480.chk
%mem=8GB
%nprocshared=4
# B3LYP/6-311++G(d,p) empiricaldispersion=gd3bj scf=xqc pop=npa geom=check

CID_47001157_JID_9480_Energie_anion

-1 2
