%chk=JID_7213.chk
%mem=8GB
%nprocshared=4
# opt freq B3LYP/6-31G(d) empiricaldispersion=gd3bj scf=xqc

CID_62938580_JID_7213_neutraal

0 1
C          0.97613        0.05172        0.08219
C         -0.08001        0.03422        1.17644
N          0.29584        0.86191        2.31680
C          0.00448        2.20371        2.31756
C          0.37629        2.98114        3.33639
N          1.03132        2.55247        4.45452
C          1.35903        1.28342        4.55459
C          1.03094        0.30140        3.36171
O          1.40294       -0.86481        3.37573
N          1.99652        0.84617        5.73360
C          2.52513        1.85237        6.67170
C          1.46495        2.32535        7.65376
C          2.23454       -0.56102        6.09437
C          1.05923       -1.20432        6.85412
C         -0.20297       -1.39828        6.01773
C          1.49562       -2.50671        7.39320
N          1.84611       -3.52144        7.83319
H          1.12680        1.06531       -0.30349
H          0.67114       -0.58900       -0.75081
H          1.93917       -0.30916        0.45791
H         -1.04160        0.38334        0.78186
H         -0.22974       -0.99721        1.51621
H         -0.52661        2.60816        1.46190
H          0.14171        4.04259        3.31409
H          3.37695        1.45086        7.23337
H          2.92662        2.71063        6.11902
H          1.16230        1.52147        8.32990
H          1.86081        3.14017        8.26854
H          0.56820        2.68991        7.14419
H          2.53882       -1.16232        5.23478
H          3.12105       -0.60499        6.74337
H          0.79313       -0.56811        7.70495
H         -0.02405       -2.05834        5.16253
H         -0.99600       -1.86139        6.61703
H         -0.59274       -0.44436        5.65170

--Link1--
%chk=JID_7213.chk
%mem=8GB
%nprocshared=4
# B3LYP/6-311++G(d,p) empiricaldispersion=gd3bj scf=xqc pop=npa geom=check

CID_62938580_JID_7213_Energie_neutraal

0 1

--Link1--
%chk=JID_7213.chk
%mem=8GB
%nprocshared=4
# B3LYP/6-311++G(d,p) empiricaldispersion=gd3bj scf=xqc pop=npa geom=check

CID_62938580_JID_7213_Energie_kation

1 2

--Link1--
%chk=JID_7213.chk
%mem=8GB
%nprocshared=4
# B3LYP/6-311++G(d,p) empiricaldispersion=gd3bj scf=xqc pop=npa geom=check

CID_62938580_JID_7213_Energie_anion

-1 2
