%chk=JID_4944.chk
%mem=8GB
%nprocshared=4
# opt freq B3LYP/6-31G(d) empiricaldispersion=gd3bj scf=xqc

CID_130956646_JID_4944_neutraal

0 1
C         -0.95200        1.37200        0.00200
C         -2.16262        0.66458       -0.00508
C         -2.17043       -0.71865        0.06714
C         -0.94696       -1.40198        0.00984
C          0.27515       -0.69883        0.03415
C          0.30356        0.70379        0.04090
C          1.66676        1.21120        0.06487
C          2.58253        0.17448        0.06749
S          1.86248       -1.36203        0.03037
C          2.12648        2.59290        0.08068
O          3.29820        2.94546        0.09289
O          1.15806        3.53357        0.08351
O         -0.97566       -2.77725       -0.10576
N         -3.38327       -1.43927        0.01413
H         -0.99286        2.45842       -0.02722
H         -3.09413        1.22282       -0.04611
H          3.66210        0.25696        0.08210
H          1.66871        4.36924        0.09434
H         -1.83792       -2.96498       -0.52180
H         -3.35342       -2.25075        0.63077
H         -4.18569       -0.85963        0.25021

--Link1--
%chk=JID_4944.chk
%mem=8GB
%nprocshared=4
# B3LYP/6-311++G(d,p) empiricaldispersion=gd3bj scf=xqc pop=npa geom=check

CID_130956646_JID_4944_Energie_neutraal

0 1

--Link1--
%chk=JID_4944.chk
%mem=8GB
%nprocshared=4
# B3LYP/6-311++G(d,p) empiricaldispersion=gd3bj scf=xqc pop=npa geom=check

CID_130956646_JID_4944_Energie_kation

1 2

--Link1--
%chk=JID_4944.chk
%mem=8GB
%nprocshared=4
# B3LYP/6-311++G(d,p) empiricaldispersion=gd3bj scf=xqc pop=npa geom=check

CID_130956646_JID_4944_Energie_anion

-1 2
