%chk=JID_7985.chk
%mem=8GB
%nprocshared=4
# opt freq B3LYP/6-31G(d) empiricaldispersion=gd3bj scf=xqc

CID_120332186_JID_7985_neutraal

0 1
C         -1.44700       -0.95900       -0.10600
C         -1.98259        0.39812        0.34785
C         -1.27879        1.42315       -0.54365
C          0.12719        0.83520       -0.69264
C         -0.08056       -0.68777       -0.75994
C          1.09993       -1.26790        0.00332
N          1.44471       -0.26163        0.98248
C          1.00635        1.05377        0.54578
C          2.29623       -0.36529        2.05939
O          2.60207        0.65198        2.69732
C          2.81214       -1.72401        2.55740
C          1.76242       -2.50723        3.35247
S          0.99715       -3.98075        2.61696
C          2.50624       -4.82232        2.07450
C          3.16311       -4.07007        0.93128
S          3.98686       -2.51232        1.38654
N         -1.95915        1.51723       -1.83679
H         -1.39824       -1.66769        0.72701
H         -2.12490       -1.38968       -0.85297
H         -3.07504        0.44872        0.28674
H         -1.71306        0.56597        1.39772
H         -1.26963        2.41451       -0.07973
H          0.64836        1.21308       -1.58038
H         -0.09441       -1.06051       -1.79045
H          0.87142       -2.22344        0.46425
H          1.96049       -1.38630       -0.66401
H          0.49387        1.55850        1.37182
H          1.88994        1.64980        0.28844
H          3.52404       -1.41000        3.33723
H          2.22287       -2.85574        4.28557
H          0.94697       -1.84245        3.66005
H          2.21131       -5.81731        1.72473
H          3.18720       -4.96776        2.91990
H          2.45842       -3.88307        0.11454
H          3.94702       -4.70744        0.50649
H         -1.43857        2.13718       -2.45638
H         -1.98909        0.61041       -2.29981

--Link1--
%chk=JID_7985.chk
%mem=8GB
%nprocshared=4
# B3LYP/6-311++G(d,p) empiricaldispersion=gd3bj scf=xqc pop=npa geom=check

CID_120332186_JID_7985_Energie_neutraal

0 1

--Link1--
%chk=JID_7985.chk
%mem=8GB
%nprocshared=4
# B3LYP/6-311++G(d,p) empiricaldispersion=gd3bj scf=xqc pop=npa geom=check

CID_120332186_JID_7985_Energie_kation

1 2

--Link1--
%chk=JID_7985.chk
%mem=8GB
%nprocshared=4
# B3LYP/6-311++G(d,p) empiricaldispersion=gd3bj scf=xqc pop=npa geom=check

CID_120332186_JID_7985_Energie_anion

-1 2
