%chk=JID_9873.chk
%mem=8GB
%nprocshared=4
# opt freq B3LYP/6-31G(d) empiricaldispersion=gd3bj scf=xqc

CID_54904438_JID_9873_neutraal

0 1
C          0.95829       -0.08114       -0.04095
S         -0.04424       -0.43811       -1.46458
O         -0.28504       -1.87012       -1.44919
O         -1.15755        0.49062       -1.47562
C          1.00680       -0.10790       -2.87180
C          0.97332        1.32577       -3.38831
C          1.59641        2.38338       -2.47519
N          3.02138        2.13413       -2.26613
C          3.64368        3.15806       -1.41527
C          3.41213        2.91162        0.05859
C          2.49287        3.66548        0.80487
C          2.26755        3.36496        2.15639
C          2.98551        2.34779        2.78202
C          3.91494        1.60638        2.05684
C          4.12351        1.88258        0.70463
O          1.35718        4.02964        2.93894
C          0.45181        4.80857        2.15052
C          1.20575        5.57900        1.08240
O          1.82206        4.67548        0.15880
H          0.44997       -0.48762        0.83663
H          1.06113        0.99439        0.07358
H          1.92964       -0.56395       -0.15805
H          2.01546       -0.45512       -2.63220
H          0.63082       -0.76406       -3.66658
H          1.49352        1.35069       -4.35504
H         -0.06350        1.61542       -3.59847
H          1.47174        3.35777       -2.96364
H          1.04607        2.43148       -1.53302
H          3.19452        1.22310       -1.85381
H          4.72630        3.12789       -1.59310
H          3.34023        4.16665       -1.71954
H          2.81412        2.13072        3.83304
H          4.47548        0.81285        2.54501
H          4.85319        1.29371        0.15144
H         -0.06420        5.50002        2.82395
H         -0.29510        4.13629        1.71063
H          0.51834        6.21497        0.51611
H          1.98326        6.21863        1.51843

--Link1--
%chk=JID_9873.chk
%mem=8GB
%nprocshared=4
# B3LYP/6-311++G(d,p) empiricaldispersion=gd3bj scf=xqc pop=npa geom=check

CID_54904438_JID_9873_Energie_neutraal

0 1

--Link1--
%chk=JID_9873.chk
%mem=8GB
%nprocshared=4
# B3LYP/6-311++G(d,p) empiricaldispersion=gd3bj scf=xqc pop=npa geom=check

CID_54904438_JID_9873_Energie_kation

1 2

--Link1--
%chk=JID_9873.chk
%mem=8GB
%nprocshared=4
# B3LYP/6-311++G(d,p) empiricaldispersion=gd3bj scf=xqc pop=npa geom=check

CID_54904438_JID_9873_Energie_anion

-1 2
