%chk=JID_8889.chk
%mem=8GB
%nprocshared=4
# opt freq B3LYP/6-31G(d) empiricaldispersion=gd3bj scf=xqc

CID_55164820_JID_8889_neutraal

0 1
C          0.99790        0.01116       -0.09935
C          0.05279       -1.00239        0.53313
C          0.76459       -1.94469        1.50351
O          0.60751       -1.59677        2.87804
C          1.16761       -0.34935        3.29957
C          2.66927       -0.33337        3.21698
N          3.45465       -1.36373        2.97446
C          4.78443       -0.97579        2.98473
C          4.99304        0.36810        3.21936
S          3.49425        1.16382        3.45509
C          5.84860       -1.93826        2.73278
C          7.09669       -1.83657        3.35867
C          8.09300       -2.78627        3.10998
C          7.86820       -3.84938        2.22367
C          6.61569       -3.95376        1.60519
C          5.61623       -3.00922        1.86072
C          8.92939       -4.89461        1.98647
N         10.21271       -4.29956        1.62752
H          1.41590        0.70242        0.63511
H          0.46111        0.60642       -0.84525
H          1.82807       -0.49090       -0.60690
H         -0.77736       -0.48393        1.02472
H         -0.37065       -1.59997       -0.28338
H          0.29987       -2.93310        1.40896
H          1.81795       -2.08560        1.24425
H          0.71130        0.47504        2.74424
H          0.87968       -0.22183        4.34935
H          5.92343        0.91640        3.25394
H          7.30566       -1.03741        4.06453
H          9.05324       -2.69838        3.61564
H          6.40064       -4.77516        0.92582
H          4.64696       -3.11492        1.37654
H          9.04204       -5.49755        2.89437
H          8.62201       -5.57213        1.18164
H         10.86623       -5.04220        1.38793
H         10.08753       -3.74233        0.78352

--Link1--
%chk=JID_8889.chk
%mem=8GB
%nprocshared=4
# B3LYP/6-311++G(d,p) empiricaldispersion=gd3bj scf=xqc pop=npa geom=check

CID_55164820_JID_8889_Energie_neutraal

0 1

--Link1--
%chk=JID_8889.chk
%mem=8GB
%nprocshared=4
# B3LYP/6-311++G(d,p) empiricaldispersion=gd3bj scf=xqc pop=npa geom=check

CID_55164820_JID_8889_Energie_kation

1 2

--Link1--
%chk=JID_8889.chk
%mem=8GB
%nprocshared=4
# B3LYP/6-311++G(d,p) empiricaldispersion=gd3bj scf=xqc pop=npa geom=check

CID_55164820_JID_8889_Energie_anion

-1 2
