%chk=JID_5292.chk
%mem=8GB
%nprocshared=4
# opt freq B3LYP/6-31G(d) empiricaldispersion=gd3bj scf=xqc

CID_148982550_JID_5292_neutraal

0 1
C          0.99074       -0.09606        0.02622
C          0.12470        1.16029        0.04685
C          0.21893        1.89694        1.40061
C          0.18453        3.34288        0.95770
C          0.73098        4.40237        1.89440
C          0.71668        5.76917        1.19757
C          1.33278        5.78547       -0.21699
C          1.07629        4.54655       -1.10048
C          1.05047        3.25938       -0.27858
O          0.62053        2.07891       -0.96434
O         -0.00342        4.66614       -2.05616
C         -1.25147        5.02343       -1.72326
O         -1.66779        5.36402       -0.63159
N         -2.04198        4.95425       -2.81753
C         -1.32046        0.81749       -0.31892
H          0.95441       -0.57881       -0.95694
H          0.66790       -0.81884        0.78227
H          2.04279        0.15185        0.20728
H         -0.59076        1.63918        2.09049
H          1.16757        1.67649        1.90624
H         -0.85385        3.57747        0.70549
H          1.75737        4.15842        2.19509
H          0.13287        4.44645        2.81145
H          1.24802        6.49615        1.82425
H         -0.31534        6.13024        1.15150
H          1.02375        6.69910       -0.73767
H          2.41975        5.85948       -0.07499
H          1.94555        4.46450       -1.76656
H          2.08943        3.06600        0.03154
H         -1.67031        4.54959       -3.66264
H         -3.03314        5.10148       -2.70832
H         -1.37028        0.35465       -1.31118
H         -1.76581        0.13000        0.40735
H         -1.94181        1.71827       -0.37055

--Link1--
%chk=JID_5292.chk
%mem=8GB
%nprocshared=4
# B3LYP/6-311++G(d,p) empiricaldispersion=gd3bj scf=xqc pop=npa geom=check

CID_148982550_JID_5292_Energie_neutraal

0 1

--Link1--
%chk=JID_5292.chk
%mem=8GB
%nprocshared=4
# B3LYP/6-311++G(d,p) empiricaldispersion=gd3bj scf=xqc pop=npa geom=check

CID_148982550_JID_5292_Energie_kation

1 2

--Link1--
%chk=JID_5292.chk
%mem=8GB
%nprocshared=4
# B3LYP/6-311++G(d,p) empiricaldispersion=gd3bj scf=xqc pop=npa geom=check

CID_148982550_JID_5292_Energie_anion

-1 2
