%chk=JID_10224.chk
%mem=8GB
%nprocshared=4
# opt freq B3LYP/6-31G(d) empiricaldispersion=gd3bj scf=xqc

CID_106743031_JID_10224_neutraal

0 1
C          0.92253        0.06130        0.01551
C          0.65506       -0.03503       -1.49054
C          1.60561        0.83702       -2.33192
C          3.00688        0.24314       -2.52908
C          2.89614       -1.21230       -2.99088
C          1.99778       -2.03822       -2.07754
N          0.66850       -1.43169       -1.94782
C         -0.43159       -2.27057       -2.05390
O         -0.27189       -3.48932       -2.22108
C         -1.88596       -1.76099       -2.03476
C         -2.36154       -1.15303       -0.71634
C         -3.88631       -1.16335       -0.56363
C         -4.57588       -0.08694       -1.39232
C         -4.81873       -0.40503       -2.86716
C         -3.80323       -1.25733       -3.63372
C         -2.30295       -1.05042       -3.34402
N         -1.95230        0.36748       -3.45920
C          3.87151        0.44939       -1.30150
O          3.84569        1.42162       -0.56342
O          4.77182       -0.52530       -1.08703
H          1.88898       -0.36212        0.29996
H          0.16471       -0.48950        0.58145
H          0.89551        1.10414        0.34801
H         -0.33613        0.38048       -1.63873
H          1.15745        0.95040       -3.32899
H          1.66047        1.84742       -1.90893
H          3.51323        0.80804       -3.32334
H          3.88189       -1.68503       -3.06528
H          2.47133       -1.22429       -4.00360
H          2.42758       -2.13356       -1.07462
H          1.93477       -3.05142       -2.48747
H         -2.42859       -2.72219       -2.06843
H         -1.93647       -1.73970        0.10836
H         -2.00383       -0.13079       -0.57481
H         -4.10733       -0.96143        0.49247
H         -4.30312       -2.15339       -0.78106
H         -4.02209        0.85525       -1.30321
H         -5.55530        0.11877       -0.94007
H         -4.94689        0.54906       -3.39556
H         -5.79182       -0.90728       -2.95309
H         -3.97627       -1.08118       -4.70488
H         -4.05491       -2.31542       -3.48230
H         -1.76314       -1.55646       -4.15607
H         -2.22705        0.70736       -4.38167
H         -2.48364        0.92430       -2.79354
H          5.26880       -0.22322       -0.29737

--Link1--
%chk=JID_10224.chk
%mem=8GB
%nprocshared=4
# B3LYP/6-311++G(d,p) empiricaldispersion=gd3bj scf=xqc pop=npa geom=check

CID_106743031_JID_10224_Energie_neutraal

0 1

--Link1--
%chk=JID_10224.chk
%mem=8GB
%nprocshared=4
# B3LYP/6-311++G(d,p) empiricaldispersion=gd3bj scf=xqc pop=npa geom=check

CID_106743031_JID_10224_Energie_kation

1 2

--Link1--
%chk=JID_10224.chk
%mem=8GB
%nprocshared=4
# B3LYP/6-311++G(d,p) empiricaldispersion=gd3bj scf=xqc pop=npa geom=check

CID_106743031_JID_10224_Energie_anion

-1 2
