%chk=JID_7628.chk
%mem=8GB
%nprocshared=4
# opt freq B3LYP/6-31G(d) empiricaldispersion=gd3bj scf=xqc

CID_80155159_JID_7628_neutraal

0 1
C          1.06860        0.07275       -0.00082
C          0.27416       -1.21803       -0.23864
C         -0.15532       -1.78674        1.12163
C         -0.94279       -0.97794       -1.17588
C         -0.50516       -0.42991       -2.54242
N         -1.67223       -2.24393       -1.36796
C         -3.11606       -2.13145       -1.09807
C         -3.85702       -1.27187       -2.10533
N         -3.90786       -1.72224       -3.38667
C         -4.47787       -0.90958       -4.31185
C         -4.99433        0.34621       -4.02602
C         -4.95036        0.78344       -2.70116
C         -4.37696       -0.03448       -1.72830
C         -5.53549        1.15537       -5.13818
O         -5.68614        0.72987       -6.27105
O         -5.79077        2.42010       -4.71927
C         -6.25088        3.29237       -5.75278
H          0.42451        0.87017        0.38488
H          1.54368        0.42720       -0.92027
H          1.87143       -0.09299        0.72613
H          0.95080       -1.94603       -0.70645
H         -0.86574       -1.12019        1.62234
H         -0.62479       -2.76988        1.01651
H          0.71082       -1.91358        1.78045
H         -1.58401       -0.22499       -0.69966
H          0.24718       -1.07518       -3.00941
H         -1.34987       -0.34589       -3.23320
H         -0.08256        0.57517       -2.44903
H         -1.58189       -2.56017       -2.33665
H         -3.54777       -3.13864       -1.14194
H         -3.28557       -1.77821       -0.07369
H         -4.48832       -1.31027       -5.32304
H         -5.34118        1.75655       -2.41667
H         -4.31185        0.30579       -0.69924
H         -5.51440        3.35480       -6.56033
H         -7.21886        2.95379       -6.13427
H         -6.37537        4.28991       -5.32244

--Link1--
%chk=JID_7628.chk
%mem=8GB
%nprocshared=4
# B3LYP/6-311++G(d,p) empiricaldispersion=gd3bj scf=xqc pop=npa geom=check

CID_80155159_JID_7628_Energie_neutraal

0 1

--Link1--
%chk=JID_7628.chk
%mem=8GB
%nprocshared=4
# B3LYP/6-311++G(d,p) empiricaldispersion=gd3bj scf=xqc pop=npa geom=check

CID_80155159_JID_7628_Energie_kation

1 2

--Link1--
%chk=JID_7628.chk
%mem=8GB
%nprocshared=4
# B3LYP/6-311++G(d,p) empiricaldispersion=gd3bj scf=xqc pop=npa geom=check

CID_80155159_JID_7628_Energie_anion

-1 2
