%chk=JID_5368.chk
%mem=8GB
%nprocshared=4
# opt freq B3LYP/6-31G(d) empiricaldispersion=gd3bj scf=xqc

CID_85790562_JID_5368_neutraal

0 1
C          1.06882        0.03820       -0.06168
C          0.29563       -1.25917       -0.07295
C         -0.65750       -1.43483        0.86121
C          0.62857       -2.27436       -1.09592
C          1.55511       -2.05832       -2.05098
C         -0.10410       -3.61300       -1.08888
N          0.43879       -4.43406       -0.01021
C         -0.35746       -5.44169        0.54101
C         -0.06727       -5.89559        1.83309
C         -0.81062       -6.92173        2.42423
C         -1.84592       -7.53918        1.72569
C         -2.10485       -7.14281        0.41602
C         -1.35447       -6.11434       -0.17268
O         -2.50680       -8.51422        2.41896
C         -3.66542       -9.06150        1.80281
H          0.75507        0.70104        0.75294
H          0.91754        0.58924       -0.99625
H          2.13957       -0.14825        0.07556
H         -1.26132       -2.33183        0.94523
H         -0.87107       -0.66628        1.59923
H          1.78900       -2.82321       -2.78681
H          2.12224       -1.13891       -2.13781
H         -1.18327       -3.44133       -0.99038
H          0.03997       -4.14056       -2.04036
H          0.88645       -3.86974        0.70840
H          0.74115       -5.44352        2.40213
H         -0.57715       -7.23903        3.43712
H         -2.87370       -7.61739       -0.18374
H         -1.56806       -5.85394       -1.20519
H         -4.40288       -8.28280        1.58026
H         -3.40155       -9.62553        0.90242
H         -4.12255       -9.75901        2.51123

--Link1--
%chk=JID_5368.chk
%mem=8GB
%nprocshared=4
# B3LYP/6-311++G(d,p) empiricaldispersion=gd3bj scf=xqc pop=npa geom=check

CID_85790562_JID_5368_Energie_neutraal

0 1

--Link1--
%chk=JID_5368.chk
%mem=8GB
%nprocshared=4
# B3LYP/6-311++G(d,p) empiricaldispersion=gd3bj scf=xqc pop=npa geom=check

CID_85790562_JID_5368_Energie_kation

1 2

--Link1--
%chk=JID_5368.chk
%mem=8GB
%nprocshared=4
# B3LYP/6-311++G(d,p) empiricaldispersion=gd3bj scf=xqc pop=npa geom=check

CID_85790562_JID_5368_Energie_anion

-1 2
