%chk=JID_10723.chk
%mem=8GB
%nprocshared=4
# opt freq B3LYP/6-31G(d) empiricaldispersion=gd3bj scf=xqc

CID_43173059_JID_10723_neutraal

0 1
C          1.07873        0.02700        0.05542
O          0.20233        1.12138       -0.18189
C          0.74437        2.23681       -0.75767
C         -0.17248        3.24712       -1.05028
C          0.24323        4.43957       -1.64922
C          1.59514        4.65196       -1.95967
C          2.51001        3.62760       -1.66299
C          2.08949        2.43230       -1.06524
C          2.08080        5.92844       -2.63529
C          1.97185        5.88449       -4.14427
C          1.41488        4.73258       -4.95864
C          0.63721        6.01215       -4.84830
N          1.39795        7.13025       -2.12618
S          2.25068        8.56757       -2.03149
O          3.08029        8.67997       -3.21251
O          1.29987        9.60496       -1.69579
C          3.33665        8.35833       -0.64577
C          2.55531        8.05273        0.58015
O          1.50952        7.42942        0.65950
O          3.19230        8.44912        1.70303
H          0.48685       -0.78962        0.47990
H          1.85093        0.29292        0.78472
H          1.52353       -0.33370       -0.87798
H         -1.22529        3.10118       -0.81962
H         -0.50535        5.19293       -1.88579
H          3.56423        3.74559       -1.90655
H          2.83773        1.67441       -0.85860
H          3.14623        6.01462       -2.38531
H          2.79362        6.43840       -4.59242
H          1.89064        4.51228       -5.90840
H          1.00665        3.85637       -4.47015
H         -0.26990        6.01181       -4.25620
H          0.59143        6.66400       -5.71382
H          0.84223        6.97733       -1.27727
H          4.05081        7.56015       -0.85545
H          3.86788        9.30766       -0.52727
H          2.60237        8.17828        2.44000

--Link1--
%chk=JID_10723.chk
%mem=8GB
%nprocshared=4
# B3LYP/6-311++G(d,p) empiricaldispersion=gd3bj scf=xqc pop=npa geom=check

CID_43173059_JID_10723_Energie_neutraal

0 1

--Link1--
%chk=JID_10723.chk
%mem=8GB
%nprocshared=4
# B3LYP/6-311++G(d,p) empiricaldispersion=gd3bj scf=xqc pop=npa geom=check

CID_43173059_JID_10723_Energie_kation

1 2

--Link1--
%chk=JID_10723.chk
%mem=8GB
%nprocshared=4
# B3LYP/6-311++G(d,p) empiricaldispersion=gd3bj scf=xqc pop=npa geom=check

CID_43173059_JID_10723_Energie_anion

-1 2
