%chk=JID_3629.chk
%mem=8GB
%nprocshared=4
# opt freq B3LYP/6-31G(d) empiricaldispersion=gd3bj scf=xqc

CID_55168613_JID_3629_neutraal

0 1
C          1.00301       -0.06069        0.07942
C          0.77548        0.25875       -1.39064
C          0.54202       -0.96056       -2.22384
C         -0.59801       -1.74266       -2.23211
S         -0.43822       -3.00903       -3.37109
C          1.13438       -2.43672       -3.77399
N          1.53037       -1.37039       -3.10587
C          1.94828       -3.14236       -4.81958
C          3.25247       -3.74795       -4.25656
C          2.96893       -4.76642       -3.14235
N          3.97123       -4.42170       -5.36075
C          5.41433       -4.49470       -5.12717
C          6.01924       -5.64199       -5.92428
H          0.13483       -0.56548        0.51633
H          1.18062        0.85957        0.64473
H          1.87203       -0.71468        0.20911
H         -0.08641        0.93028       -1.48726
H          1.64413        0.80442       -1.77831
H         -1.49528       -1.62792       -1.64283
H          1.35284       -3.92556       -5.30830
H          2.19557       -2.41204       -5.60186
H          3.86611       -2.93153       -3.85357
H          2.29414       -5.55766       -3.48907
H          3.88799       -5.24454       -2.78819
H          2.50896       -4.28587       -2.27325
H          3.58808       -5.35700       -5.49686
H          5.87739       -3.55112       -5.43615
H          5.65370       -4.65259       -4.07023
H          5.82251       -5.53504       -6.99586
H          7.10385       -5.67216       -5.77882
H          5.61161       -6.60423       -5.59411

--Link1--
%chk=JID_3629.chk
%mem=8GB
%nprocshared=4
# B3LYP/6-311++G(d,p) empiricaldispersion=gd3bj scf=xqc pop=npa geom=check

CID_55168613_JID_3629_Energie_neutraal

0 1

--Link1--
%chk=JID_3629.chk
%mem=8GB
%nprocshared=4
# B3LYP/6-311++G(d,p) empiricaldispersion=gd3bj scf=xqc pop=npa geom=check

CID_55168613_JID_3629_Energie_kation

1 2

--Link1--
%chk=JID_3629.chk
%mem=8GB
%nprocshared=4
# B3LYP/6-311++G(d,p) empiricaldispersion=gd3bj scf=xqc pop=npa geom=check

CID_55168613_JID_3629_Energie_anion

-1 2
