%chk=JID_7010.chk
%mem=8GB
%nprocshared=4
# opt freq B3LYP/6-31G(d) empiricaldispersion=gd3bj scf=xqc

CID_105500447_JID_7010_neutraal

0 1
C          1.06015       -0.06839        0.04130
C          0.36891       -0.08004       -1.32088
C          1.02225       -1.09184       -2.26524
N         -1.06549       -0.30706       -1.16906
C         -2.08073        0.63223       -1.20927
C         -3.24919       -0.07494       -1.03463
C         -4.66762        0.36120       -1.01313
N         -5.54424       -0.74510       -0.61205
C         -5.19123       -2.10652       -1.05865
C         -3.78261       -2.52508       -0.61099
C         -2.83653       -1.41318       -0.86458
N         -1.51450       -1.56430       -0.92946
C         -6.80971       -0.40868       -0.16588
O         -7.18434        0.74452        0.01578
O         -7.59624       -1.49699        0.05361
C         -8.90452       -1.18798        0.53466
N         -1.88464        1.95671       -1.39036
H          0.97651       -1.03929        0.54221
H          0.61300        0.68378        0.70061
H          2.12425        0.16704       -0.06521
H          0.48903        0.90821       -1.77833
H          0.99418       -2.10766       -1.85578
H          0.51169       -1.10743       -3.23444
H          2.07169       -0.83226       -2.44079
H         -4.97959        0.68213       -2.01381
H         -4.79830        1.20512       -0.32675
H         -5.91252       -2.84612       -0.69898
H         -5.25813       -2.10148       -2.15433
H         -3.79011       -2.74338        0.46369
H         -3.47828       -3.43584       -1.13766
H         -8.84745       -0.67026        1.49735
H         -9.45147       -0.58734       -0.19879
H         -9.44220       -2.12896        0.68041
H         -2.65036        2.60815       -1.23124
H         -0.97793        2.39155       -1.24460

--Link1--
%chk=JID_7010.chk
%mem=8GB
%nprocshared=4
# B3LYP/6-311++G(d,p) empiricaldispersion=gd3bj scf=xqc pop=npa geom=check

CID_105500447_JID_7010_Energie_neutraal

0 1

--Link1--
%chk=JID_7010.chk
%mem=8GB
%nprocshared=4
# B3LYP/6-311++G(d,p) empiricaldispersion=gd3bj scf=xqc pop=npa geom=check

CID_105500447_JID_7010_Energie_kation

1 2

--Link1--
%chk=JID_7010.chk
%mem=8GB
%nprocshared=4
# B3LYP/6-311++G(d,p) empiricaldispersion=gd3bj scf=xqc pop=npa geom=check

CID_105500447_JID_7010_Energie_anion

-1 2
