%chk=JID_2740.chk
%mem=8GB
%nprocshared=4
# opt freq B3LYP/6-31G(d) empiricaldispersion=gd3bj scf=xqc

CID_147582947_JID_2740_neutraal

0 1
C         -0.02900        0.88300        0.00000
C         -0.24164       -0.35752        0.81124
C          1.16040        0.06551        0.43641
C          2.02087       -0.79125       -0.48446
C          1.94766       -0.78370       -1.98951
C          3.17984       -0.24395       -1.30405
C          3.55939        1.22381       -1.23744
C          4.99244        1.43627       -1.79802
C          4.79006        1.77456       -3.28189
C          3.46469        2.47684       -3.33500
C          2.71405        2.15557       -2.08492
C          3.11924        3.58316       -2.37351
H         -0.18341        1.84195        0.48137
H         -0.33836        0.85851       -1.03731
H         -0.54538       -0.24630        1.84539
H         -0.66767       -1.22016        0.31177
H          1.73221        0.49504        1.26166
H          2.21713       -1.77501       -0.04938
H          2.03619       -1.73702       -2.50116
H          1.25180       -0.11665       -2.47749
H          4.06030       -0.88134       -1.31067
H          3.54136        1.54583       -0.19005
H          5.45097        2.29721       -1.29438
H          5.66560        0.58548       -1.65629
H          5.60058        2.40066       -3.66615
H          4.74543        0.85570       -3.87682
H          2.96556        2.42470       -4.29143
H          1.65596        1.95244       -2.09757
H          3.90397        4.03891       -1.78222
H          2.33994        4.27820       -2.66789

--Link1--
%chk=JID_2740.chk
%mem=8GB
%nprocshared=4
# B3LYP/6-311++G(d,p) empiricaldispersion=gd3bj scf=xqc pop=npa geom=check

CID_147582947_JID_2740_Energie_neutraal

0 1

--Link1--
%chk=JID_2740.chk
%mem=8GB
%nprocshared=4
# B3LYP/6-311++G(d,p) empiricaldispersion=gd3bj scf=xqc pop=npa geom=check

CID_147582947_JID_2740_Energie_kation

1 2

--Link1--
%chk=JID_2740.chk
%mem=8GB
%nprocshared=4
# B3LYP/6-311++G(d,p) empiricaldispersion=gd3bj scf=xqc pop=npa geom=check

CID_147582947_JID_2740_Energie_anion

-1 2
