%chk=JID_10931.chk
%mem=8GB
%nprocshared=4
# opt freq B3LYP/6-31G(d) empiricaldispersion=gd3bj scf=xqc

CID_64148482_JID_10931_neutraal

0 1
C          2.17000       -0.01600       -0.00900
C          0.75505       -0.10962        0.42089
N          0.20041        0.49324        1.45122
C         -1.11203        0.09377        1.44998
C         -1.37527       -0.75454        0.39755
N         -0.16443       -0.88196       -0.23930
S         -2.80687       -1.57479       -0.16858
O         -2.48517       -1.97681       -1.51929
O         -3.11906       -2.52588        0.86993
N         -4.05549       -0.46137       -0.20080
C         -4.32212        0.22206       -1.47815
C         -3.26991        1.34043       -1.79529
C         -3.85876        2.65278       -1.21906
C         -5.33236        2.38888       -1.26357
C         -6.36215        3.30703       -1.14351
C         -7.67689        2.83815       -1.18205
C         -7.94438        1.46831       -1.32779
C         -6.90000        0.54788       -1.43460
C         -5.59631        1.02256       -1.40192
N         -2.99891        1.48270       -3.24485
H          2.75483       -0.82656        0.43609
H          2.25845       -0.08025       -1.09801
H          2.60383        0.93656        0.31037
H         -1.80722        0.44152        2.20345
H         -0.00109       -1.44219       -1.06637
H         -4.88940       -0.85899        0.23318
H         -4.41085       -0.50623       -2.29242
H         -2.30001        1.14550       -1.33266
H         -3.54111        2.79246       -0.17965
H         -3.57751        3.53443       -1.80379
H         -6.15766        4.36639       -1.02195
H         -8.50255        3.54063       -1.09398
H         -8.97542        1.12291       -1.35328
H         -7.11191       -0.51132       -1.54306
H         -2.72796        0.57687       -3.62928
H         -3.86280        1.74568       -3.72312

--Link1--
%chk=JID_10931.chk
%mem=8GB
%nprocshared=4
# B3LYP/6-311++G(d,p) empiricaldispersion=gd3bj scf=xqc pop=npa geom=check

CID_64148482_JID_10931_Energie_neutraal

0 1

--Link1--
%chk=JID_10931.chk
%mem=8GB
%nprocshared=4
# B3LYP/6-311++G(d,p) empiricaldispersion=gd3bj scf=xqc pop=npa geom=check

CID_64148482_JID_10931_Energie_kation

1 2

--Link1--
%chk=JID_10931.chk
%mem=8GB
%nprocshared=4
# B3LYP/6-311++G(d,p) empiricaldispersion=gd3bj scf=xqc pop=npa geom=check

CID_64148482_JID_10931_Energie_anion

-1 2
