%chk=JID_6471.chk
%mem=8GB
%nprocshared=4
# opt freq B3LYP/6-31G(d) empiricaldispersion=gd3bj scf=xqc

CID_116503357_JID_6471_neutraal

0 1
C          1.04649        0.08459        0.02613
C          1.51038       -0.14353       -1.40219
C          1.59841       -1.59263       -1.94766
C          0.45098       -2.51608       -1.52051
C          0.92405       -3.91526       -1.90990
C          2.44011       -3.80832       -2.03565
N          2.78251       -2.44123       -1.65417
C          3.54492       -2.25992       -0.42164
C          3.02121       -2.74756        0.95971
C          2.95521       -4.26835        1.11567
C          3.93664       -2.20335        2.07943
O          3.90609       -0.77767        2.09389
C          4.73187       -0.24109        3.11865
C          1.53736       -1.40188       -3.49881
O          0.59362       -1.65569       -4.23403
O          2.66465       -0.87216       -4.02707
H          0.07682       -0.37959        0.22317
H          0.92797        1.15982        0.20223
H          1.76999       -0.26965        0.75542
H          0.81351        0.42319       -2.03716
H          2.47878        0.35583       -1.53940
H          0.29421       -2.49650       -0.43701
H         -0.50633       -2.27692       -1.99549
H          0.61782       -4.65117       -1.16050
H          0.48471       -4.21677       -2.86774
H          2.97381       -4.58566       -1.48434
H          2.72260       -3.96035       -3.08526
H          4.51783       -2.74515       -0.58492
H          3.80058       -1.19638       -0.35373
H          2.01651       -2.34944        1.12521
H          3.89037       -4.74360        0.80213
H          2.77348       -4.54781        2.15975
H          2.13201       -4.69734        0.54340
H          3.59082       -2.56816        3.05427
H          4.96768       -2.54538        1.92607
H          4.38545       -0.57239        4.10231
H          5.77392       -0.53765        2.96574
H          4.66882        0.84950        3.07551
H          2.48194       -0.83849       -4.98697

--Link1--
%chk=JID_6471.chk
%mem=8GB
%nprocshared=4
# B3LYP/6-311++G(d,p) empiricaldispersion=gd3bj scf=xqc pop=npa geom=check

CID_116503357_JID_6471_Energie_neutraal

0 1

--Link1--
%chk=JID_6471.chk
%mem=8GB
%nprocshared=4
# B3LYP/6-311++G(d,p) empiricaldispersion=gd3bj scf=xqc pop=npa geom=check

CID_116503357_JID_6471_Energie_kation

1 2

--Link1--
%chk=JID_6471.chk
%mem=8GB
%nprocshared=4
# B3LYP/6-311++G(d,p) empiricaldispersion=gd3bj scf=xqc pop=npa geom=check

CID_116503357_JID_6471_Energie_anion

-1 2
