%chk=JID_9760.chk
%mem=8GB
%nprocshared=4
# opt freq B3LYP/6-31G(d) empiricaldispersion=gd3bj scf=xqc

CID_109739115_JID_9760_neutraal

0 1
C          0.99798        0.08042        0.05941
C          0.59722       -0.33610        1.46408
N          0.35239        0.85553        2.27218
C         -0.20534        0.74097        3.51550
N          0.21550        1.23374        4.62574
C          1.42034        2.05564        4.66885
C          2.67556        1.24459        4.50942
C          2.88852       -0.00924        5.05543
S          4.42390       -0.65254        4.67202
C          4.84554        0.74458        3.78422
C          3.83106        1.67606        3.77504
N         -1.35586        0.01173        3.56691
C         -2.50181        0.37038        2.72829
C         -3.68308       -0.60836        2.92014
C         -3.31403       -2.05113        2.52810
C         -4.23792       -2.99107        3.29167
C         -4.19377       -2.55182        4.74355
S         -4.18586       -0.73965        4.69096
C         -4.89367       -0.10803        2.11865
H          0.20503        0.66754       -0.41588
H          1.19074       -0.80112       -0.55965
H          1.90564        0.69316        0.07409
H         -0.29007       -0.97399        1.40282
H          1.40098       -0.92597        1.91882
H          1.19405        1.41854        2.29408
H          1.37133        2.85880        3.92317
H          1.45717        2.55410        5.64503
H          2.19524       -0.58246        5.65730
H          5.81700        0.81725        3.31523
H          3.91370        2.62996        3.26793
H         -1.65773       -0.02777        4.54114
H         -2.81475        1.39227        2.97949
H         -2.21413        0.37674        1.67036
H         -3.40279       -2.20929        1.44718
H         -2.27562       -2.28748        2.79280
H         -3.91362       -4.03207        3.18956
H         -5.26088       -2.93528        2.90086
H         -3.27516       -2.89376        5.23052
H         -5.05131       -2.92469        5.30984
H         -5.18857        0.90221        2.42640
H         -4.65462       -0.06433        1.04953
H         -5.76887       -0.75789        2.22682

--Link1--
%chk=JID_9760.chk
%mem=8GB
%nprocshared=4
# B3LYP/6-311++G(d,p) empiricaldispersion=gd3bj scf=xqc pop=npa geom=check

CID_109739115_JID_9760_Energie_neutraal

0 1

--Link1--
%chk=JID_9760.chk
%mem=8GB
%nprocshared=4
# B3LYP/6-311++G(d,p) empiricaldispersion=gd3bj scf=xqc pop=npa geom=check

CID_109739115_JID_9760_Energie_kation

1 2

--Link1--
%chk=JID_9760.chk
%mem=8GB
%nprocshared=4
# B3LYP/6-311++G(d,p) empiricaldispersion=gd3bj scf=xqc pop=npa geom=check

CID_109739115_JID_9760_Energie_anion

-1 2
