%chk=JID_5144.chk
%mem=8GB
%nprocshared=4
# opt freq B3LYP/6-31G(d) empiricaldispersion=gd3bj scf=xqc

CID_59475978_JID_5144_neutraal

0 1
C          0.97143        0.09124       -0.02932
C          0.56835       -1.07625        0.81508
C         -0.19634       -0.94877        1.96757
C         -0.77081        0.31971        2.58697
C         -1.44625       -0.26768        3.77653
C         -1.32858       -1.63086        3.88419
C         -0.54897       -2.08697        2.75596
C         -0.14979       -3.36875        2.40460
C          0.61817       -3.49309        1.23577
C          0.97002       -2.37142        0.45900
C         -0.50112       -4.57789        3.21258
C         -1.97839       -2.12766        5.02997
C         -2.56995       -1.09751        5.75216
S         -2.31993        0.44496        5.01074
C         -3.34277       -1.19998        7.02283
H          0.58434        1.03709        0.36069
H          0.58660       -0.03010       -1.04712
H          2.06291        0.16875       -0.06652
H          0.02774        1.00961        2.87381
H         -1.48576        0.79382        1.90843
H          0.95926       -4.47464        0.91087
H          1.57015       -2.52491       -0.43665
H         -0.08181       -4.49809        4.22046
H         -1.58768       -4.69431        3.27398
H         -0.09914       -5.49166        2.76180
H         -2.02201       -3.16538        5.33260
H         -4.20577       -1.85994        6.88688
H         -2.71181       -1.61912        7.81353
H         -3.71294       -0.22899        7.36713

--Link1--
%chk=JID_5144.chk
%mem=8GB
%nprocshared=4
# B3LYP/6-311++G(d,p) empiricaldispersion=gd3bj scf=xqc pop=npa geom=check

CID_59475978_JID_5144_Energie_neutraal

0 1

--Link1--
%chk=JID_5144.chk
%mem=8GB
%nprocshared=4
# B3LYP/6-311++G(d,p) empiricaldispersion=gd3bj scf=xqc pop=npa geom=check

CID_59475978_JID_5144_Energie_kation

1 2

--Link1--
%chk=JID_5144.chk
%mem=8GB
%nprocshared=4
# B3LYP/6-311++G(d,p) empiricaldispersion=gd3bj scf=xqc pop=npa geom=check

CID_59475978_JID_5144_Energie_anion

-1 2
