%chk=JID_9518.chk
%mem=8GB
%nprocshared=4
# opt freq B3LYP/6-31G(d) empiricaldispersion=gd3bj scf=xqc

CID_8084178_JID_9518_neutraal

0 1
C          1.09079       -0.02532       -0.03342
C          0.45653        1.36083       -0.18921
C          0.80755        1.95036       -1.55758
C         -1.04793        1.39610        0.02778
C         -1.63769        2.57921        0.49961
C         -3.01918        2.66740        0.69695
C         -3.85176        1.58167        0.40471
C         -3.26423        0.39081       -0.03135
C         -1.88306        0.30424       -0.24071
N         -5.24086        1.59113        0.68857
C         -6.01679        2.69321        0.49658
N         -6.83010        3.18077        1.40999
N         -7.50203        4.30717        0.97750
C         -7.20009        4.62335       -0.26369
S         -6.09751        3.54413       -1.00354
S         -7.97758        5.99251       -1.02956
C         -6.78156        6.54460       -2.26756
C         -5.57025        7.15101       -1.62530
C         -4.31135        6.75714       -1.86213
H          0.78897       -0.70761       -0.83531
H          0.81522       -0.48022        0.92431
H          2.18350        0.04983       -0.06442
H          0.91509        1.99509        0.58208
H          0.36707        1.36304       -2.37111
H          0.43946        2.97802       -1.65323
H          1.89281        1.97234       -1.70418
H         -1.01964        3.44578        0.72705
H         -3.43008        3.59256        1.09434
H         -3.88677       -0.47799       -0.23329
H         -1.47890       -0.63303       -0.61359
H         -5.37438        1.20622        1.62244
H         -6.52913        5.72993       -2.95359
H         -7.27098        7.31756       -2.87016
H         -5.73720        7.98072       -0.93998
H         -3.47518        7.24704       -1.37165
H         -4.08099        5.94552       -2.54616

--Link1--
%chk=JID_9518.chk
%mem=8GB
%nprocshared=4
# B3LYP/6-311++G(d,p) empiricaldispersion=gd3bj scf=xqc pop=npa geom=check

CID_8084178_JID_9518_Energie_neutraal

0 1

--Link1--
%chk=JID_9518.chk
%mem=8GB
%nprocshared=4
# B3LYP/6-311++G(d,p) empiricaldispersion=gd3bj scf=xqc pop=npa geom=check

CID_8084178_JID_9518_Energie_kation

1 2

--Link1--
%chk=JID_9518.chk
%mem=8GB
%nprocshared=4
# B3LYP/6-311++G(d,p) empiricaldispersion=gd3bj scf=xqc pop=npa geom=check

CID_8084178_JID_9518_Energie_anion

-1 2
