%chk=JID_8558.chk
%mem=8GB
%nprocshared=4
# opt freq B3LYP/6-31G(d) empiricaldispersion=gd3bj scf=xqc

CID_69400907_JID_8558_neutraal

0 1
C         -0.78000        1.93900       -0.04000
N         -0.02025        0.71777        0.07830
C         -0.46674       -0.56225       -0.15432
C          0.59482       -1.39763        0.14269
C          1.63145       -0.50962        0.51981
N          1.26523        0.77343        0.48541
C          0.59283       -2.85135        0.06287
N         -0.22262       -3.42273       -0.85535
C         -0.18285       -4.75455       -0.96636
N          0.59140       -5.54371       -0.20746
C          1.37004       -4.94483        0.70843
C          1.41916       -3.58732        0.88431
N         -0.93960       -5.43963       -1.91368
C         -1.51266       -4.98065       -3.13588
C         -2.63047       -3.93353       -3.01791
N         -2.07475       -3.25314       -4.21864
C         -0.76208       -3.89606       -3.93152
N         -1.72503       -0.84242       -0.57398
H         -1.06650        2.06598       -1.08683
H         -1.66460        1.86086        0.59686
H         -0.16696        2.78489        0.28206
H          2.64548       -0.74512        0.81459
H          1.97661       -5.61326        1.31222
H          2.06071       -3.14204        1.63135
H         -0.57874       -6.38716       -1.92957
H         -1.81148       -5.83567       -3.75788
H         -3.64635       -4.31886       -3.15115
H         -2.62249       -3.30855       -2.12222
H         -2.49319       -3.57644       -5.09118
H         -0.08104       -3.23999       -3.38177
H         -0.23541       -4.25693       -4.82100
H         -1.85447       -1.79895       -0.91515
H         -2.22785       -0.18393       -1.16220

--Link1--
%chk=JID_8558.chk
%mem=8GB
%nprocshared=4
# B3LYP/6-311++G(d,p) empiricaldispersion=gd3bj scf=xqc pop=npa geom=check

CID_69400907_JID_8558_Energie_neutraal

0 1

--Link1--
%chk=JID_8558.chk
%mem=8GB
%nprocshared=4
# B3LYP/6-311++G(d,p) empiricaldispersion=gd3bj scf=xqc pop=npa geom=check

CID_69400907_JID_8558_Energie_kation

1 2

--Link1--
%chk=JID_8558.chk
%mem=8GB
%nprocshared=4
# B3LYP/6-311++G(d,p) empiricaldispersion=gd3bj scf=xqc pop=npa geom=check

CID_69400907_JID_8558_Energie_anion

-1 2
