%chk=JID_9764.chk
%mem=8GB
%nprocshared=4
# opt freq B3LYP/6-31G(d) empiricaldispersion=gd3bj scf=xqc

CID_79393901_JID_9764_neutraal

0 1
C          0.96244       -0.07534        0.05397
C          0.64308       -1.29706        0.90432
O          1.47711       -1.33239        2.06571
C          2.75823       -1.76920        1.79580
N          2.89788       -2.83338        0.99094
C          4.15717       -3.20560        0.76860
N          5.25274       -2.58381        1.21976
C          5.07524       -1.50399        2.00152
C          3.80767       -1.08902        2.39052
C          3.57126        0.08377        3.28964
N          6.20134       -0.79802        2.44615
C          7.50529       -1.17569        1.89100
C          7.67901       -0.80826        0.41924
C          7.72137        0.69012        0.23263
O          8.63425        1.37333        0.69832
N          6.70990        1.30307       -0.45816
C          5.54203        0.70043       -1.00653
C          4.87308        1.30658       -2.21067
C          5.57419       -0.01335       -2.32861
H          0.91296        0.83699        0.65748
H          0.25567        0.01153       -0.77627
H          1.97438       -0.13243       -0.35972
H         -0.38812       -1.21212        1.26494
H          0.68684       -2.22257        0.31845
H          4.31151       -4.08443        0.15272
H          3.55925        1.00827        2.70373
H          2.62034       -0.00308        3.82561
H          4.34626        0.15943        4.05924
H          6.04784        0.20522        2.39847
H          8.27091       -0.66524        2.48769
H          7.68141       -2.24896        2.03453
H          8.64180       -1.19462        0.06241
H          6.92013       -1.27339       -0.21112
H          6.82090        2.30848       -0.53525
H          4.87010        0.30823       -0.24810
H          3.78935        1.30907       -2.24029
H          5.33166        2.16338       -2.69001
H          6.50873       -0.04581       -2.87624
H          4.96864       -0.90686       -2.43062

--Link1--
%chk=JID_9764.chk
%mem=8GB
%nprocshared=4
# B3LYP/6-311++G(d,p) empiricaldispersion=gd3bj scf=xqc pop=npa geom=check

CID_79393901_JID_9764_Energie_neutraal

0 1

--Link1--
%chk=JID_9764.chk
%mem=8GB
%nprocshared=4
# B3LYP/6-311++G(d,p) empiricaldispersion=gd3bj scf=xqc pop=npa geom=check

CID_79393901_JID_9764_Energie_kation

1 2

--Link1--
%chk=JID_9764.chk
%mem=8GB
%nprocshared=4
# B3LYP/6-311++G(d,p) empiricaldispersion=gd3bj scf=xqc pop=npa geom=check

CID_79393901_JID_9764_Energie_anion

-1 2
