%chk=JID_5471.chk
%mem=8GB
%nprocshared=4
# opt freq B3LYP/6-31G(d) empiricaldispersion=gd3bj scf=xqc

CID_142028772_JID_5471_neutraal

0 1
C          1.06585       -0.02227       -0.07188
C         -0.17552       -0.91383       -0.09506
C          0.06233       -2.20653        0.64036
C          0.50642       -3.37321        0.15634
C          0.93278       -3.62684       -1.19372
C          0.50685       -3.02363       -2.30995
C         -0.47345       -1.96101       -2.43928
C         -0.73154       -1.03898       -1.49071
C         -1.18643       -1.76838       -3.72802
C         -0.58976       -0.95941       -4.70952
C         -1.21559       -0.75507       -5.93881
C         -2.44226       -1.35822       -6.20033
C         -3.04395       -2.16737       -5.23513
C         -2.42651       -2.38506       -3.99277
C         -3.10178       -3.26434       -2.97572
H          1.40772        0.14797        0.95536
H          0.85403        0.95675       -0.51665
H          1.89617       -0.46972       -0.63036
H         -0.95705       -0.39672        0.48074
H         -0.15657       -2.16557        1.70666
H          0.62729       -4.20861        0.84396
H          1.66233       -4.42872       -1.29637
H          0.92197       -3.37226       -3.25540
H         -1.44076       -0.24597       -1.73388
H          0.36906       -0.48405       -4.51427
H         -0.74556       -0.12635       -6.69008
H         -2.93254       -1.20034       -7.15748
H         -4.00229       -2.63047       -5.46008
H         -2.46195       -4.11419       -2.71794
H         -3.33626       -2.69323       -2.07182
H         -4.04366       -3.67008       -3.36043

--Link1--
%chk=JID_5471.chk
%mem=8GB
%nprocshared=4
# B3LYP/6-311++G(d,p) empiricaldispersion=gd3bj scf=xqc pop=npa geom=check

CID_142028772_JID_5471_Energie_neutraal

0 1

--Link1--
%chk=JID_5471.chk
%mem=8GB
%nprocshared=4
# B3LYP/6-311++G(d,p) empiricaldispersion=gd3bj scf=xqc pop=npa geom=check

CID_142028772_JID_5471_Energie_kation

1 2

--Link1--
%chk=JID_5471.chk
%mem=8GB
%nprocshared=4
# B3LYP/6-311++G(d,p) empiricaldispersion=gd3bj scf=xqc pop=npa geom=check

CID_142028772_JID_5471_Energie_anion

-1 2
