%chk=JID_6319.chk
%mem=8GB
%nprocshared=4
# opt freq B3LYP/6-31G(d) empiricaldispersion=gd3bj scf=xqc

CID_62678632_JID_6319_neutraal

0 1
C          1.07240       -0.04289        0.05402
C          1.07621        1.48440       -0.00318
C          1.33426        2.11459       -1.41470
C          0.38990        1.45605       -2.43292
C          1.01997        3.61599       -1.28613
C          2.82658        1.90073       -1.79792
O          3.58341        1.29154       -1.03218
N          3.33656        2.35870       -2.99378
C          2.77780        3.29550       -3.95479
C          3.75813        3.29181       -5.11813
C          5.09357        3.04487       -4.43068
C          4.73506        2.04163       -3.33250
C          4.95917        0.60565       -3.83988
O          6.06377        0.16247       -4.13999
O          3.79147       -0.08598       -3.97731
C          3.95716       -1.43424       -4.41294
H          0.22715       -0.46125       -0.50067
H          0.97192       -0.37198        1.09377
H          1.99180       -0.47859       -0.34438
H          0.10174        1.82127        0.37521
H          1.82185        1.85961        0.71018
H         -0.61394        1.32511       -2.01214
H          0.25954        2.05318       -3.33718
H          0.76094        0.47339       -2.74469
H          1.79863        4.13460       -0.71562
H          0.93348        4.11033       -2.25639
H          0.06333        3.78124       -0.77695
H          2.75290        4.28422       -3.48574
H          1.77665        3.01625       -4.27495
H          3.53084        2.46541       -5.80227
H          3.73740        4.22476       -5.68797
H          5.85845        2.69174       -5.12855
H          5.44867        3.97903       -3.97818
H          5.36952        2.17546       -2.44870
H          4.38174       -1.46027       -5.42118
H          4.58569       -1.99191       -3.71149
H          2.97030       -1.90456       -4.44045

--Link1--
%chk=JID_6319.chk
%mem=8GB
%nprocshared=4
# B3LYP/6-311++G(d,p) empiricaldispersion=gd3bj scf=xqc pop=npa geom=check

CID_62678632_JID_6319_Energie_neutraal

0 1

--Link1--
%chk=JID_6319.chk
%mem=8GB
%nprocshared=4
# B3LYP/6-311++G(d,p) empiricaldispersion=gd3bj scf=xqc pop=npa geom=check

CID_62678632_JID_6319_Energie_kation

1 2

--Link1--
%chk=JID_6319.chk
%mem=8GB
%nprocshared=4
# B3LYP/6-311++G(d,p) empiricaldispersion=gd3bj scf=xqc pop=npa geom=check

CID_62678632_JID_6319_Energie_anion

-1 2
