%chk=JID_8585.chk
%mem=8GB
%nprocshared=4
# opt freq B3LYP/6-31G(d) empiricaldispersion=gd3bj scf=xqc

CID_61670992_JID_8585_neutraal

0 1
C          1.06617       -0.03118        0.06819
C          0.34199       -1.35608       -0.17371
C          1.01605       -2.46540        0.63977
C         -1.15580       -1.28623        0.18830
C         -1.98921       -0.26942       -0.61554
C         -2.05670       -0.69887       -2.08571
O         -2.83570       -1.51259       -2.56474
O         -1.11178       -0.12809       -2.86159
N         -3.34995       -0.25376       -0.03182
C         -4.18050        0.78234       -0.47969
N         -3.62974        1.88532       -1.04644
C         -4.41151        2.88807       -1.48682
C         -5.78740        2.89551       -1.41361
C         -6.36977        1.76938       -0.82697
C         -5.59491        0.70790       -0.35165
C         -6.43754       -0.31543        0.21895
C         -7.77777       -0.01733        0.15097
S         -8.05466        1.49018       -0.58983
H          0.93420        0.31075        1.10024
H          0.70028        0.75284       -0.60108
H          2.14067       -0.13665       -0.11728
H          0.44682       -1.61890       -1.23279
H          0.95798       -2.26226        1.71458
H          0.53790       -3.43232        0.45043
H          2.07320       -2.55909        0.36924
H         -1.59325       -2.28618        0.05784
H         -1.25069       -1.05414        1.25828
H         -1.53814        0.72490       -0.53568
H         -1.30711       -0.47103       -3.75810
H         -3.82602       -1.14502       -0.14733
H         -3.87655        3.72755       -1.92294
H         -6.37695        3.72500       -1.78287
H         -6.06266       -1.22826        0.66470
H         -8.60748       -0.61392        0.50488

--Link1--
%chk=JID_8585.chk
%mem=8GB
%nprocshared=4
# B3LYP/6-311++G(d,p) empiricaldispersion=gd3bj scf=xqc pop=npa geom=check

CID_61670992_JID_8585_Energie_neutraal

0 1

--Link1--
%chk=JID_8585.chk
%mem=8GB
%nprocshared=4
# B3LYP/6-311++G(d,p) empiricaldispersion=gd3bj scf=xqc pop=npa geom=check

CID_61670992_JID_8585_Energie_kation

1 2

--Link1--
%chk=JID_8585.chk
%mem=8GB
%nprocshared=4
# B3LYP/6-311++G(d,p) empiricaldispersion=gd3bj scf=xqc pop=npa geom=check

CID_61670992_JID_8585_Energie_anion

-1 2
