%chk=JID_3125.chk
%mem=8GB
%nprocshared=4
# opt freq B3LYP/6-31G(d) empiricaldispersion=gd3bj scf=xqc

CID_64866630_JID_3125_neutraal

0 1
C         -0.02900        0.88300        0.00000
C         -1.02474       -0.23885        0.01066
C          0.43842       -0.53671        0.16740
N          1.20497       -1.15353       -0.91592
C          1.32069       -2.61158       -0.80268
C          0.10453       -3.39260       -1.32741
C         -0.03448       -3.35704       -2.83246
C          0.78967       -4.15778       -3.63825
C          0.67403       -4.12473       -5.02994
C         -0.26635       -3.28594       -5.61752
C         -1.09063       -2.48534       -4.83727
C         -0.97732       -2.52175       -3.44649
O         -0.41310       -3.22066       -6.97148
H          0.01807        1.53337        0.86570
H          0.16468        1.38597       -0.94006
H         -1.65605       -0.34855        0.88500
H         -1.51905       -0.47630       -0.92170
H          0.78562       -0.79119        1.16805
H          0.84372       -0.90907       -1.83864
H          2.21770       -2.91656       -1.35474
H          1.50416       -2.88836        0.24291
H          0.20198       -4.44264       -1.02132
H         -0.81821       -3.03806       -0.85275
H          1.52775       -4.81526       -3.18371
H          1.32111       -4.75491       -5.63134
H         -1.82126       -1.83535       -5.31014
H         -1.63276       -1.89436       -2.84872
H          0.22299       -3.82999       -7.38009

--Link1--
%chk=JID_3125.chk
%mem=8GB
%nprocshared=4
# B3LYP/6-311++G(d,p) empiricaldispersion=gd3bj scf=xqc pop=npa geom=check

CID_64866630_JID_3125_Energie_neutraal

0 1

--Link1--
%chk=JID_3125.chk
%mem=8GB
%nprocshared=4
# B3LYP/6-311++G(d,p) empiricaldispersion=gd3bj scf=xqc pop=npa geom=check

CID_64866630_JID_3125_Energie_kation

1 2

--Link1--
%chk=JID_3125.chk
%mem=8GB
%nprocshared=4
# B3LYP/6-311++G(d,p) empiricaldispersion=gd3bj scf=xqc pop=npa geom=check

CID_64866630_JID_3125_Energie_anion

-1 2
