%chk=JID_8079.chk
%mem=8GB
%nprocshared=4
# opt freq B3LYP/6-31G(d) empiricaldispersion=gd3bj scf=xqc

CID_61197258_JID_8079_neutraal

0 1
C          1.26600       -0.09700        0.26800
C          0.78938        1.25032       -0.23912
C         -0.71772        1.18502       -0.04226
C         -1.10045       -0.29315       -0.23851
C          0.23122       -1.06097       -0.29393
C         -1.95281       -0.49378       -1.49446
N         -2.46990       -1.84186       -1.60532
C         -3.53413       -2.47226       -1.10339
O         -3.50468       -3.70530       -1.07732
N         -4.63560       -1.87599       -0.64681
C         -5.17569       -0.50543       -0.61584
C         -5.21526        0.16392       -2.01249
C         -6.67592        0.50166       -2.30898
C         -7.33265        0.57803       -0.94716
C         -6.67244       -0.57017       -0.20269
C         -4.47087        0.28227        0.50911
O         -4.12699       -0.16233        1.59570
O         -4.31197        1.59828        0.26668
H          1.25152       -0.11984        1.36406
H          2.27940       -0.33517       -0.06724
H          1.24342        2.08606        0.30052
H          1.02559        1.36016       -1.30428
H         -1.24233        1.86831       -0.71758
H         -0.96586        1.48735        0.98281
H         -1.66417       -0.62889        0.64004
H          0.49685       -1.32459       -1.32466
H          0.18917       -1.99026        0.28343
H         -2.76625        0.21956       -1.50623
H         -1.35686       -0.31024       -2.39586
H         -1.78381       -2.53291       -1.88473
H         -5.23144       -2.58166       -0.23174
H         -4.63717        1.09277       -2.04766
H         -4.82375       -0.48406       -2.80456
H         -7.12962       -0.30088       -2.90265
H         -6.77770        1.43412       -2.87231
H         -8.41925        0.46791       -1.00293
H         -7.10799        1.53467       -0.46184
H         -7.12986       -1.51372       -0.52946
H         -6.83354       -0.48942        0.87792
H         -3.90245        1.93338        1.09309

--Link1--
%chk=JID_8079.chk
%mem=8GB
%nprocshared=4
# B3LYP/6-311++G(d,p) empiricaldispersion=gd3bj scf=xqc pop=npa geom=check

CID_61197258_JID_8079_Energie_neutraal

0 1

--Link1--
%chk=JID_8079.chk
%mem=8GB
%nprocshared=4
# B3LYP/6-311++G(d,p) empiricaldispersion=gd3bj scf=xqc pop=npa geom=check

CID_61197258_JID_8079_Energie_kation

1 2

--Link1--
%chk=JID_8079.chk
%mem=8GB
%nprocshared=4
# B3LYP/6-311++G(d,p) empiricaldispersion=gd3bj scf=xqc pop=npa geom=check

CID_61197258_JID_8079_Energie_anion

-1 2
