%chk=JID_6169.chk
%mem=8GB
%nprocshared=4
# opt freq B3LYP/6-31G(d) empiricaldispersion=gd3bj scf=xqc

CID_84036976_JID_6169_neutraal

0 1
C          1.03455       -0.08316        0.04348
C          0.73076        0.87213        1.16548
C          1.24511        2.18633        1.18663
C          2.16401        2.70114        0.10694
C          2.03903        4.21412       -0.03286
N          2.18661        4.88658        1.24954
C          1.53625        4.39713        2.37723
O          1.42353        5.04723        3.41165
C          0.95575        3.02414        2.28338
C          0.13576        2.57279        3.32390
C         -0.39853        1.28847        3.28317
C         -0.10226        0.44565        2.21269
C          2.73442        6.24112        1.26865
C          1.78588        7.34628        0.81080
O          2.23005        8.38954        0.32100
C          0.31638        7.21601        1.11432
H          0.53167        0.24042       -0.87317
H          0.69193       -1.09727        0.27554
H          2.11386       -0.14033       -0.13056
H          1.93278        2.24896       -0.86299
H          3.19284        2.42987        0.37306
H          1.05622        4.48335       -0.43759
H          2.80560        4.57938       -0.72486
H         -0.08375        3.21972        4.17083
H         -1.03650        0.93959        4.09140
H         -0.52115       -0.55930        2.20709
H          3.04763        6.49043        2.28855
H          3.62481        6.25413        0.63083
H         -0.09776        6.33045        0.62906
H          0.16418        7.16991        2.19474
H         -0.21240        8.09159        0.72560

--Link1--
%chk=JID_6169.chk
%mem=8GB
%nprocshared=4
# B3LYP/6-311++G(d,p) empiricaldispersion=gd3bj scf=xqc pop=npa geom=check

CID_84036976_JID_6169_Energie_neutraal

0 1

--Link1--
%chk=JID_6169.chk
%mem=8GB
%nprocshared=4
# B3LYP/6-311++G(d,p) empiricaldispersion=gd3bj scf=xqc pop=npa geom=check

CID_84036976_JID_6169_Energie_kation

1 2

--Link1--
%chk=JID_6169.chk
%mem=8GB
%nprocshared=4
# B3LYP/6-311++G(d,p) empiricaldispersion=gd3bj scf=xqc pop=npa geom=check

CID_84036976_JID_6169_Energie_anion

-1 2
