%chk=JID_5589.chk
%mem=8GB
%nprocshared=4
# opt freq B3LYP/6-31G(d) empiricaldispersion=gd3bj scf=xqc

CID_13066218_JID_5589_neutraal

0 1
C          1.04137       -0.05038        0.07583
N          1.11024        0.10362       -1.36738
C          0.10844       -0.44403       -2.19702
C         -0.85617       -1.32811       -1.69164
C         -1.83257       -1.87922       -2.51254
C         -1.84998       -1.57614       -3.86850
C         -0.87510       -0.73131       -4.44944
C          0.13116       -0.18160       -3.60637
C          1.14353        0.60829       -4.21443
C          1.17267        0.88444       -5.58426
C          0.18142        0.37618       -6.40433
C         -0.82236       -0.41570       -5.83474
N         -1.83267       -0.92232       -6.74725
O         -1.44642       -1.67120       -7.65513
O         -2.99933       -0.54486       -6.57307
H          1.12459       -1.10154        0.36994
H          0.11900        0.37936        0.48007
H          1.88329        0.48060        0.53164
H          1.30483        1.06619       -1.63215
H         -0.87817       -1.59740       -0.64030
H         -2.58127       -2.54744       -2.09423
H         -2.63621       -2.03073       -4.46958
H          1.95914        1.00697       -3.61371
H          1.97478        1.48969       -5.99980
H          0.19631        0.58528       -7.47147

--Link1--
%chk=JID_5589.chk
%mem=8GB
%nprocshared=4
# B3LYP/6-311++G(d,p) empiricaldispersion=gd3bj scf=xqc pop=npa geom=check

CID_13066218_JID_5589_Energie_neutraal

0 1

--Link1--
%chk=JID_5589.chk
%mem=8GB
%nprocshared=4
# B3LYP/6-311++G(d,p) empiricaldispersion=gd3bj scf=xqc pop=npa geom=check

CID_13066218_JID_5589_Energie_kation

1 2

--Link1--
%chk=JID_5589.chk
%mem=8GB
%nprocshared=4
# B3LYP/6-311++G(d,p) empiricaldispersion=gd3bj scf=xqc pop=npa geom=check

CID_13066218_JID_5589_Energie_anion

-1 2
