%chk=JID_4906.chk
%mem=8GB
%nprocshared=4
# opt freq B3LYP/6-31G(d) empiricaldispersion=gd3bj scf=xqc

CID_115654474_JID_4906_neutraal

0 1
C          0.99024       -0.05979       -0.07956
C          0.42898       -0.04792       -1.50619
C          1.02811       -1.18683       -2.36034
C          0.85489       -2.63466       -1.88055
C         -0.53067       -3.22237       -2.10764
O          1.78206       -3.44658       -2.61182
C         -1.11263       -0.02729       -1.51764
N         -1.62907        1.29374       -1.14978
C         -3.08372        1.31558       -0.91889
C         -3.48211        2.72038       -0.42556
C         -3.35668        3.78737       -1.51558
C         -4.14208        3.40877       -2.76860
C         -3.77953        2.01428       -3.27258
C         -3.91648        0.96894       -2.16615
H          0.59503       -0.89879        0.50195
H          0.73700        0.86177        0.45384
H          2.08261       -0.13787       -0.09232
H          0.77635        0.88212       -1.97977
H          0.65140       -1.10114       -3.38885
H          2.10707       -0.99395       -2.45113
H          1.12942       -2.73283       -0.82667
H         -0.86173       -3.06321       -3.13969
H         -0.51455       -4.30674       -1.94944
H         -1.27540       -2.80109       -1.43160
H          1.56757       -3.36766       -3.55721
H         -1.46001       -0.28272       -2.52382
H         -1.49534       -0.77330       -0.81445
H         -1.15854        1.62638       -0.30896
H         -3.32251        0.59992       -0.12190
H         -4.52239        2.69161       -0.07557
H         -2.87602        3.01010        0.44194
H         -2.30147        3.93380       -1.77565
H         -3.72190        4.74685       -1.13179
H         -3.95784        4.14641       -3.55775
H         -5.21576        3.44395       -2.54552
H         -2.75410        2.01688       -3.66080
H         -4.43419        1.74790       -4.11027
H         -3.65679       -0.02085       -2.55656
H         -4.97319        0.90343       -1.87385

--Link1--
%chk=JID_4906.chk
%mem=8GB
%nprocshared=4
# B3LYP/6-311++G(d,p) empiricaldispersion=gd3bj scf=xqc pop=npa geom=check

CID_115654474_JID_4906_Energie_neutraal

0 1

--Link1--
%chk=JID_4906.chk
%mem=8GB
%nprocshared=4
# B3LYP/6-311++G(d,p) empiricaldispersion=gd3bj scf=xqc pop=npa geom=check

CID_115654474_JID_4906_Energie_kation

1 2

--Link1--
%chk=JID_4906.chk
%mem=8GB
%nprocshared=4
# B3LYP/6-311++G(d,p) empiricaldispersion=gd3bj scf=xqc pop=npa geom=check

CID_115654474_JID_4906_Energie_anion

-1 2
