%chk=JID_3252.chk
%mem=8GB
%nprocshared=4
# opt freq B3LYP/6-31G(d) empiricaldispersion=gd3bj scf=xqc

CID_12708068_JID_3252_neutraal

0 1
C          0.96204        0.06079       -0.06974
C          0.94122        1.29697        0.82606
N         -0.41520        1.78475        1.03274
N         -0.93813        2.58497        0.07711
C         -0.07278        3.29719       -0.59513
N          1.30305        3.25859       -0.41790
N          1.82026        2.32165        0.23891
C         -0.55873        4.24389       -1.65049
C          0.34094        4.97401       -2.44100
C         -0.13276        5.85124       -3.42032
C         -1.50417        6.00620       -3.61651
C         -2.40608        5.28546       -2.83582
C         -1.93670        4.40684       -1.85659
H          0.57748        0.28027       -1.07221
H          0.35897       -0.74712        0.35833
H          1.98630       -0.30995       -0.18755
H          1.35499        1.02153        1.80209
H         -1.05334        1.02919        1.27934
H          1.41536        4.87218       -2.30864
H          0.56994        6.41464       -4.02962
H         -1.87057        6.69049       -4.37798
H         -3.47588        5.40737       -2.98686
H         -2.65473        3.85443       -1.25387

--Link1--
%chk=JID_3252.chk
%mem=8GB
%nprocshared=4
# B3LYP/6-311++G(d,p) empiricaldispersion=gd3bj scf=xqc pop=npa geom=check

CID_12708068_JID_3252_Energie_neutraal

0 1

--Link1--
%chk=JID_3252.chk
%mem=8GB
%nprocshared=4
# B3LYP/6-311++G(d,p) empiricaldispersion=gd3bj scf=xqc pop=npa geom=check

CID_12708068_JID_3252_Energie_kation

1 2

--Link1--
%chk=JID_3252.chk
%mem=8GB
%nprocshared=4
# B3LYP/6-311++G(d,p) empiricaldispersion=gd3bj scf=xqc pop=npa geom=check

CID_12708068_JID_3252_Energie_anion

-1 2
