%chk=JID_5327.chk
%mem=8GB
%nprocshared=4
# opt freq B3LYP/6-31G(d) empiricaldispersion=gd3bj scf=xqc

CID_115731384_JID_5327_neutraal

0 1
C          0.99379        0.08106       -0.05823
C          0.00034        0.43077        1.05737
C         -0.71550        1.74057        0.70793
C         -1.01667       -0.70377        1.37850
C         -1.72919       -1.24739        0.13457
C         -0.34096       -1.86622        2.13874
C         -0.13204       -1.55185        3.61170
O         -0.95610       -0.92315        4.27497
N          0.96709       -2.04721        4.25062
C          2.19065       -2.58177        3.67141
C          3.15045       -1.46908        3.23974
C          3.77948       -0.75112        4.43084
C          4.23908       -2.01411        2.35199
O          4.67555       -1.47272        1.34989
O          4.77584       -3.16737        2.78903
H          0.49472       -0.02845       -1.02638
H          1.53742       -0.84324        0.15421
H          1.73907        0.87744       -0.16422
H          0.58249        0.62881        1.96685
H         -1.28161        1.66080       -0.22502
H         -1.40769        2.03100        1.50520
H          0.00911        2.55369        0.58856
H         -1.79678       -0.27682        2.02276
H         -1.04013       -1.78172       -0.52708
H         -2.51740       -1.95097        0.42500
H         -2.20567       -0.44583       -0.43729
H         -0.98634       -2.75375        2.11848
H          0.59007       -2.14519        1.64549
H          0.98819       -1.78407        5.23002
H          2.64780       -3.21672        4.43922
H          1.93454       -3.23437        2.83098
H          2.59846       -0.73458        2.64093
H          4.34142       -1.44640        5.06447
H          4.47861        0.02234        4.09438
H          3.01668       -0.26763        5.04952
H          5.49152       -3.35605        2.14395

--Link1--
%chk=JID_5327.chk
%mem=8GB
%nprocshared=4
# B3LYP/6-311++G(d,p) empiricaldispersion=gd3bj scf=xqc pop=npa geom=check

CID_115731384_JID_5327_Energie_neutraal

0 1

--Link1--
%chk=JID_5327.chk
%mem=8GB
%nprocshared=4
# B3LYP/6-311++G(d,p) empiricaldispersion=gd3bj scf=xqc pop=npa geom=check

CID_115731384_JID_5327_Energie_kation

1 2

--Link1--
%chk=JID_5327.chk
%mem=8GB
%nprocshared=4
# B3LYP/6-311++G(d,p) empiricaldispersion=gd3bj scf=xqc pop=npa geom=check

CID_115731384_JID_5327_Energie_anion

-1 2
