%chk=JID_6628.chk
%mem=8GB
%nprocshared=4
# opt freq B3LYP/6-31G(d) empiricaldispersion=gd3bj scf=xqc

CID_63961691_JID_6628_neutraal

0 1
C          1.09079        0.01800       -0.03785
C          0.65493        0.18988       -1.49306
C          0.81608        1.63980       -1.96647
C          2.25253        1.99298       -2.34077
C          2.79540        1.03463       -3.39446
C          2.74310       -0.43617       -2.95368
C          1.32727       -0.80263       -2.45694
C          3.87560       -0.75556       -1.93858
N          3.97562       -2.21142       -1.73314
C          4.82340       -2.56023       -0.67632
C          4.53137       -2.23643        0.64369
C          5.41172       -2.63014        1.64847
C          6.55234       -3.34333        1.30733
C          6.75739       -3.63569       -0.02948
N          5.91784       -3.26230       -1.02129
O          2.99679       -1.22796       -4.13394
H          1.06513       -1.03549        0.25869
H          0.40748        0.56198        0.62428
H          2.09152        0.40813        0.15447
H         -0.41996       -0.03901       -1.50602
H          0.17956        1.79248       -2.84803
H          0.45237        2.33458       -1.20016
H          2.89177        1.98373       -1.45140
H          2.28089        3.01580       -2.73425
H          3.82226        1.31563       -3.66025
H          2.21777        1.15624       -4.32129
H          1.31711       -1.81342       -2.03008
H          0.67929       -0.87900       -3.34316
H          4.83430       -0.41260       -2.35095
H          3.71938       -0.21862       -1.00187
H          4.46567       -2.62540       -2.53082
H          3.62219       -1.70282        0.89397
H          5.20151       -2.38966        2.68627
H          7.25831       -3.67045        2.06192
H          7.62916       -4.19803       -0.35141
H          2.89632       -2.15657       -3.85169

--Link1--
%chk=JID_6628.chk
%mem=8GB
%nprocshared=4
# B3LYP/6-311++G(d,p) empiricaldispersion=gd3bj scf=xqc pop=npa geom=check

CID_63961691_JID_6628_Energie_neutraal

0 1

--Link1--
%chk=JID_6628.chk
%mem=8GB
%nprocshared=4
# B3LYP/6-311++G(d,p) empiricaldispersion=gd3bj scf=xqc pop=npa geom=check

CID_63961691_JID_6628_Energie_kation

1 2

--Link1--
%chk=JID_6628.chk
%mem=8GB
%nprocshared=4
# B3LYP/6-311++G(d,p) empiricaldispersion=gd3bj scf=xqc pop=npa geom=check

CID_63961691_JID_6628_Energie_anion

-1 2
