%chk=JID_3764.chk
%mem=8GB
%nprocshared=4
# opt freq B3LYP/6-31G(d) empiricaldispersion=gd3bj scf=xqc

CID_89028705_JID_3764_neutraal

0 1
C          0.91024        0.03662       -0.02454
C          0.15420        1.31864        0.18171
C         -0.76266        1.70767       -0.71601
O          0.52271        1.94264        1.33702
C          0.03921        3.18431        1.86688
C          0.71287        4.38460        1.19562
C          0.18596        4.72217       -0.17546
O         -0.96996        5.11354       -0.34075
C          1.15169        4.61882       -1.32791
C         -1.48853        3.30767        2.10936
N         -1.98908        2.57666        3.30326
C         -3.41313        2.86735        3.49708
C         -1.79459        1.12978        3.19021
H          0.60782       -0.48838       -0.93665
H          0.74281       -0.63920        0.82075
H          1.98371        0.24073       -0.09595
H         -1.35459        2.60723       -0.64165
H         -0.96440        1.10343       -1.59666
H          0.47856        3.19699        2.87541
H          0.59144        5.28406        1.81152
H          1.79101        4.20102        1.11395
H          1.87801        5.43271       -1.26767
H          1.66826        3.65617       -1.29800
H          0.60601        4.68815       -2.27282
H         -1.70249        4.37125        2.27743
H         -2.06993        3.00089        1.23869
H         -4.02318        2.52716        2.65225
H         -3.78421        2.38305        4.40739
H         -3.57395        3.94293        3.62966
H         -2.23483        0.72119        2.27391
H         -0.73262        0.87031        3.22347
H         -2.24830        0.61282        4.04406

--Link1--
%chk=JID_3764.chk
%mem=8GB
%nprocshared=4
# B3LYP/6-311++G(d,p) empiricaldispersion=gd3bj scf=xqc pop=npa geom=check

CID_89028705_JID_3764_Energie_neutraal

0 1

--Link1--
%chk=JID_3764.chk
%mem=8GB
%nprocshared=4
# B3LYP/6-311++G(d,p) empiricaldispersion=gd3bj scf=xqc pop=npa geom=check

CID_89028705_JID_3764_Energie_kation

1 2

--Link1--
%chk=JID_3764.chk
%mem=8GB
%nprocshared=4
# B3LYP/6-311++G(d,p) empiricaldispersion=gd3bj scf=xqc pop=npa geom=check

CID_89028705_JID_3764_Energie_anion

-1 2
