%chk=JID_3175.chk
%mem=8GB
%nprocshared=4
# opt freq B3LYP/6-31G(d) empiricaldispersion=gd3bj scf=xqc

CID_66219722_JID_3175_neutraal

0 1
C          0.97692        0.05314        0.08151
C          0.17154        1.34403       -0.04639
C          0.57378        2.19304       -1.27379
S          0.07958        1.48848       -2.89488
C          1.62836        0.63829       -3.42340
C          1.34712       -0.20878       -4.67895
C          1.01493        0.54979       -5.96765
C          2.14030        1.45472       -6.45050
N          2.24689        2.67660       -5.68930
C          2.61477        2.79929       -4.38541
O          2.76782        3.91512       -3.89177
C          2.85324        1.53994       -3.59036
N         -1.26083        1.01253       -0.03392
H          0.72890       -0.66963       -0.70249
H          0.77751       -0.43106        1.04449
H          2.05147        0.25853        0.03188
H          0.37680        1.94625        0.84722
H          0.06076        3.15977       -1.20437
H          1.64295        2.41517       -1.24969
H          1.86603       -0.08023       -2.63158
H          2.22381       -0.84268       -4.87040
H          0.52649       -0.90792       -4.46805
H          0.82284       -0.19799       -6.74745
H          0.08724        1.12192       -5.85391
H          3.10525        0.93738       -6.42297
H          1.94995        1.75194       -7.48737
H          2.10689        3.56336       -6.16030
H          3.67960        0.98758       -4.05470
H          3.23238        1.83953       -2.60618
H         -1.80223        1.87665       -0.07786
H         -1.48044        0.53314       -0.91151

--Link1--
%chk=JID_3175.chk
%mem=8GB
%nprocshared=4
# B3LYP/6-311++G(d,p) empiricaldispersion=gd3bj scf=xqc pop=npa geom=check

CID_66219722_JID_3175_Energie_neutraal

0 1

--Link1--
%chk=JID_3175.chk
%mem=8GB
%nprocshared=4
# B3LYP/6-311++G(d,p) empiricaldispersion=gd3bj scf=xqc pop=npa geom=check

CID_66219722_JID_3175_Energie_kation

1 2

--Link1--
%chk=JID_3175.chk
%mem=8GB
%nprocshared=4
# B3LYP/6-311++G(d,p) empiricaldispersion=gd3bj scf=xqc pop=npa geom=check

CID_66219722_JID_3175_Energie_anion

-1 2
