%chk=JID_2496.chk
%mem=8GB
%nprocshared=4
# opt freq B3LYP/6-31G(d) empiricaldispersion=gd3bj scf=xqc

CID_115013993_JID_2496_neutraal

0 1
C          1.02382        0.07721       -0.05892
C          0.56943        0.66042        1.29141
C          1.19679        2.05566        1.42597
C         -0.96013        0.75896        1.27563
O          1.15527       -0.20449        2.26932
C          0.55332       -0.51704        3.51704
C          0.31219        0.68221        4.42535
C          1.67311        0.91160        5.03754
O          2.17194       -0.39466        5.32045
C          1.62622       -1.28643        4.32652
C         -0.65654       -1.45657        3.47040
O         -0.96426       -2.16087        2.51261
H          0.67694        0.68238       -0.90327
H          0.64374       -0.94332       -0.18619
H          2.11694        0.00741       -0.10921
H          0.93500        2.69677        0.57698
H          0.87045        2.56866        2.33337
H          2.28934        1.98796        1.48371
H         -1.42156       -0.20612        1.04784
H         -1.36932        1.09639        2.23069
H         -1.29843        1.46489        0.50814
H         -0.39765        0.42866        5.22294
H         -0.06186        1.58064        3.93777
H          2.35850        1.40569        4.34031
H          1.62650        1.49630        5.96019
H          1.22736       -2.15072        4.86890
H          2.45394       -1.63346        3.69805
H         -1.23664       -1.52934        4.40724

--Link1--
%chk=JID_2496.chk
%mem=8GB
%nprocshared=4
# B3LYP/6-311++G(d,p) empiricaldispersion=gd3bj scf=xqc pop=npa geom=check

CID_115013993_JID_2496_Energie_neutraal

0 1

--Link1--
%chk=JID_2496.chk
%mem=8GB
%nprocshared=4
# B3LYP/6-311++G(d,p) empiricaldispersion=gd3bj scf=xqc pop=npa geom=check

CID_115013993_JID_2496_Energie_kation

1 2

--Link1--
%chk=JID_2496.chk
%mem=8GB
%nprocshared=4
# B3LYP/6-311++G(d,p) empiricaldispersion=gd3bj scf=xqc pop=npa geom=check

CID_115013993_JID_2496_Energie_anion

-1 2
