%chk=JID_4469.chk
%mem=8GB
%nprocshared=4
# opt freq B3LYP/6-31G(d) empiricaldispersion=gd3bj scf=xqc

CID_143167933_JID_4469_neutraal

0 1
C          1.05569       -0.08117       -0.01759
C          0.74078        0.57007       -1.30395
C          0.91415        1.86909       -1.69968
N          0.44312        1.98588       -2.99225
C         -0.01154        0.78876       -3.43196
N          0.19582       -0.08579       -2.41492
C         -0.01406       -1.53409       -2.49996
C         -0.62774        0.48996       -4.77968
C         -0.05664        1.01369       -5.94394
C         -0.62937        0.73424       -7.18552
C         -1.77161       -0.06104       -7.26489
C         -2.34386       -0.58157       -6.10519
C         -1.77288       -0.30958       -4.86127
C          0.33624        3.25812       -3.70465
H          0.19926       -0.67018        0.32162
H          1.28461        0.67111        0.74279
H          1.92320       -0.73549       -0.13835
H          1.30120        2.74336       -1.20247
H          0.67758       -2.05686       -1.83413
H         -1.04103       -1.76106       -2.20362
H          0.17800       -1.88499       -3.51669
H          0.85620        1.60139       -5.91312
H         -0.18252        1.12724       -8.09710
H         -2.21754       -0.27608       -8.23457
H         -3.24216       -1.19246       -6.17530
H         -2.25992       -0.69372       -3.96936
H          0.37196        4.08753       -2.99187
H          1.17531        3.35060       -4.39820
H         -0.61474        3.30930       -4.24043

--Link1--
%chk=JID_4469.chk
%mem=8GB
%nprocshared=4
# B3LYP/6-311++G(d,p) empiricaldispersion=gd3bj scf=xqc pop=npa geom=check

CID_143167933_JID_4469_Energie_neutraal

0 1

--Link1--
%chk=JID_4469.chk
%mem=8GB
%nprocshared=4
# B3LYP/6-311++G(d,p) empiricaldispersion=gd3bj scf=xqc pop=npa geom=check

CID_143167933_JID_4469_Energie_kation

1 2

--Link1--
%chk=JID_4469.chk
%mem=8GB
%nprocshared=4
# B3LYP/6-311++G(d,p) empiricaldispersion=gd3bj scf=xqc pop=npa geom=check

CID_143167933_JID_4469_Energie_anion

-1 2
