%chk=JID_1828.chk
%mem=8GB
%nprocshared=4
# opt freq B3LYP/6-31G(d) empiricaldispersion=gd3bj scf=xqc

CID_89277200_JID_1828_neutraal

0 1
C          1.00167        0.08585       -0.05125
C          0.41743       -0.86861       -1.08216
C          0.70007       -2.34037       -0.77241
C         -0.02315       -2.91120        0.45370
N         -1.46811       -3.07079        0.24830
C         -1.85795       -4.17328       -0.63107
C         -3.35163       -4.41415       -0.52063
C         -4.06247       -3.10197       -0.79394
N         -3.62232       -2.05027        0.12201
C         -2.40438       -2.11187        0.53972
N         -2.01432       -1.15237        1.41039
H          0.55411       -0.05566        0.93559
H          0.82001        1.12202       -0.35425
H          2.08365       -0.05308        0.04060
H         -0.65771       -0.69314       -1.18830
H          0.86551       -0.63155       -2.05502
H          0.45128       -2.93385       -1.65966
H          1.78025       -2.46330       -0.62180
H          0.40194       -3.90105        0.66538
H          0.20090       -2.31836        1.34600
H         -1.32200       -5.08937       -0.35800
H         -1.60020       -3.93253       -1.66898
H         -3.67014       -5.17988       -1.23571
H         -3.60182       -4.77377        0.48529
H         -3.90262       -2.77457       -1.82795
H         -5.14076       -3.24607       -0.66570
H         -1.61166       -1.54580        2.24950
H         -2.82228       -0.58524        1.64739

--Link1--
%chk=JID_1828.chk
%mem=8GB
%nprocshared=4
# B3LYP/6-311++G(d,p) empiricaldispersion=gd3bj scf=xqc pop=npa geom=check

CID_89277200_JID_1828_Energie_neutraal

0 1

--Link1--
%chk=JID_1828.chk
%mem=8GB
%nprocshared=4
# B3LYP/6-311++G(d,p) empiricaldispersion=gd3bj scf=xqc pop=npa geom=check

CID_89277200_JID_1828_Energie_kation

1 2

--Link1--
%chk=JID_1828.chk
%mem=8GB
%nprocshared=4
# B3LYP/6-311++G(d,p) empiricaldispersion=gd3bj scf=xqc pop=npa geom=check

CID_89277200_JID_1828_Energie_anion

-1 2
