%chk=JID_10814.chk
%mem=8GB
%nprocshared=4
# opt freq B3LYP/6-31G(d) empiricaldispersion=gd3bj scf=xqc

CID_80244901_JID_10814_neutraal

0 1
C          2.62500       -0.32100        0.00300
C          1.15922       -0.09321        0.18854
C          0.23309       -1.10831        0.34192
S         -1.36207       -0.53255        0.52610
C         -0.84494        1.08749        0.40284
C          0.52316        1.20788        0.23028
C          1.23775        2.52488        0.09936
N          1.23870        2.88519       -1.31424
C          2.00508        4.09953       -1.58465
C          3.49871        3.91738       -1.43766
C          4.20818        3.10046       -2.32833
C          5.58520        2.91460       -2.18048
C          6.27929        3.55007       -1.14072
C          5.57704        4.37399       -0.25199
C          4.19691        4.55278       -0.40177
N          7.68201        3.34505       -1.00943
C          8.54034        3.88895       -0.07473
C          9.79682        3.39920       -0.34102
C          9.61893        2.56437       -1.45137
N          8.35198        2.52398       -1.86265
H          2.97296        0.15268       -0.92037
H          3.18474        0.09914        0.84468
H          2.85843       -1.38898       -0.05874
H          0.41812       -2.17389        0.35213
H         -1.57033        1.88792        0.45631
H          0.71615        3.28901        0.68806
H          2.25055        2.42877        0.50485
H          1.62398        2.11254       -1.85323
H          1.80330        4.41457       -2.61598
H          1.64735        4.92329       -0.95427
H          3.69265        2.60141       -3.14642
H          6.10528        2.27141       -2.88876
H          6.06665        4.88913        0.56832
H          3.66802        5.19298        0.30187
H          8.20171        4.57001        0.68998
H         10.71072        3.61707        0.19283
H         10.36036        1.98078       -1.98223

--Link1--
%chk=JID_10814.chk
%mem=8GB
%nprocshared=4
# B3LYP/6-311++G(d,p) empiricaldispersion=gd3bj scf=xqc pop=npa geom=check

CID_80244901_JID_10814_Energie_neutraal

0 1

--Link1--
%chk=JID_10814.chk
%mem=8GB
%nprocshared=4
# B3LYP/6-311++G(d,p) empiricaldispersion=gd3bj scf=xqc pop=npa geom=check

CID_80244901_JID_10814_Energie_kation

1 2

--Link1--
%chk=JID_10814.chk
%mem=8GB
%nprocshared=4
# B3LYP/6-311++G(d,p) empiricaldispersion=gd3bj scf=xqc pop=npa geom=check

CID_80244901_JID_10814_Energie_anion

-1 2
