%chk=JID_9852.chk
%mem=8GB
%nprocshared=4
# opt freq B3LYP/6-31G(d) empiricaldispersion=gd3bj scf=xqc

CID_81976588_JID_9852_neutraal

0 1
C          0.92678       -0.06660       -0.01422
C          1.28332       -1.54354       -0.11901
C          0.53840       -2.44530        0.88747
C         -0.98837       -2.24367        0.92416
C         -1.61659       -2.22714       -0.46028
O         -1.24813       -3.00349       -1.34206
N         -2.57632       -1.24909       -0.68626
C         -3.56381       -0.84553        0.31414
C         -4.93083       -1.44094       -0.02647
C         -5.33393       -1.08980       -1.46935
C         -4.24518       -1.52069       -2.45989
C         -2.91323       -0.90674       -2.06238
N         -6.64592       -1.62631       -1.81323
C         -6.88571       -3.00073       -2.21169
C         -8.39466       -3.04232       -2.41282
N         -8.86298       -1.92863       -1.63734
C         -7.83232       -1.04501       -1.36368
O         -7.96429        0.03585       -0.81826
N          0.90836       -3.84375        0.63176
H         -0.10740        0.13272       -0.30364
H          1.56970        0.51916       -0.67948
H          1.07792        0.29897        1.00641
H          1.10144       -1.87210       -1.14956
H          2.36389       -1.64977        0.04490
H          0.91659       -2.20591        1.88974
H         -1.47701       -3.02616        1.51631
H         -1.17363       -1.29089        1.43196
H         -3.60719        0.24940        0.31784
H         -3.27982       -1.17675        1.31583
H         -5.67898       -1.07126        0.68432
H         -4.89364       -2.53158        0.09180
H         -5.43114        0.00368       -1.52136
H         -4.14870       -2.61341       -2.46978
H         -4.51082       -1.20976       -3.47673
H         -2.12270       -1.23376       -2.74624
H         -2.96038        0.18723       -2.12405
H         -6.57728       -3.65858       -1.39257
H         -6.33995       -3.25418       -3.12398
H         -8.85194       -3.97324       -2.07034
H         -8.66418       -2.85938       -3.45811
H         -9.82323       -1.63291       -1.52560
H          0.41987       -4.45933        1.27981
H          0.55745       -4.09822       -0.29864

--Link1--
%chk=JID_9852.chk
%mem=8GB
%nprocshared=4
# B3LYP/6-311++G(d,p) empiricaldispersion=gd3bj scf=xqc pop=npa geom=check

CID_81976588_JID_9852_Energie_neutraal

0 1

--Link1--
%chk=JID_9852.chk
%mem=8GB
%nprocshared=4
# B3LYP/6-311++G(d,p) empiricaldispersion=gd3bj scf=xqc pop=npa geom=check

CID_81976588_JID_9852_Energie_kation

1 2

--Link1--
%chk=JID_9852.chk
%mem=8GB
%nprocshared=4
# B3LYP/6-311++G(d,p) empiricaldispersion=gd3bj scf=xqc pop=npa geom=check

CID_81976588_JID_9852_Energie_anion

-1 2
