%chk=JID_7553.chk
%mem=8GB
%nprocshared=4
# opt freq B3LYP/6-31G(d) empiricaldispersion=gd3bj scf=xqc

CID_122370700_JID_7553_neutraal

0 1
C         -0.71700        1.22600        0.24100
C          0.55614        0.95754       -0.57973
O          1.15956       -0.29925       -0.24165
C          0.23089       -1.37123       -0.46470
C         -1.01292       -1.21704        0.42209
N         -1.67206        0.09688        0.20170
C         -2.71209        0.08308       -0.74226
C         -3.93527       -0.54873       -0.42475
C         -4.93453       -0.60590       -1.40635
N         -4.82923       -0.05004       -2.63840
C         -3.67550        0.59087       -2.89672
C         -2.61595        0.68672       -2.00035
C         -6.22286       -1.28766       -1.06675
O         -7.14600       -1.42716       -1.86256
C         -6.37817       -1.79733        0.32314
C         -5.34896       -1.68234        1.16879
N         -4.13434       -1.15571        0.83370
H         -0.42371        1.35173        1.29093
H         -1.18910        2.16722       -0.06365
H          0.36088        0.96999       -1.65648
H          1.29286        1.74163       -0.37671
H          0.74403       -2.30700       -0.22168
H         -0.03576       -1.40237       -1.52770
H         -0.70498       -1.25164        1.47435
H         -1.68791       -2.06359        0.25535
H         -3.61120        1.04217       -3.88371
H         -1.72795        1.21534       -2.31976
H         -7.33169       -2.22925        0.59359
H         -5.42364       -2.01907        2.19901
H         -3.50160       -0.83268        1.56201

--Link1--
%chk=JID_7553.chk
%mem=8GB
%nprocshared=4
# B3LYP/6-311++G(d,p) empiricaldispersion=gd3bj scf=xqc pop=npa geom=check

CID_122370700_JID_7553_Energie_neutraal

0 1

--Link1--
%chk=JID_7553.chk
%mem=8GB
%nprocshared=4
# B3LYP/6-311++G(d,p) empiricaldispersion=gd3bj scf=xqc pop=npa geom=check

CID_122370700_JID_7553_Energie_kation

1 2

--Link1--
%chk=JID_7553.chk
%mem=8GB
%nprocshared=4
# B3LYP/6-311++G(d,p) empiricaldispersion=gd3bj scf=xqc pop=npa geom=check

CID_122370700_JID_7553_Energie_anion

-1 2
