%chk=JID_7315.chk
%mem=8GB
%nprocshared=4
# opt freq B3LYP/6-31G(d) empiricaldispersion=gd3bj scf=xqc

CID_128380771_JID_7315_neutraal

0 1
C          1.02443       -0.06618        0.07088
C          0.73600        1.13946        0.87072
N          0.32196        1.06914        2.13989
N          0.16890        2.36312        2.44679
C          0.51611        3.16068        1.37930
N          0.88081        2.40943        0.36479
C          0.41593        4.55244        1.56795
C         -0.01629        5.01038        2.74996
C         -0.39371        4.02254        3.82076
N         -0.28775        2.73444        3.65705
N         -0.87886        4.51091        5.01774
C         -1.63021        3.71288        5.99163
C         -0.83021        2.53205        6.56964
C         -1.54204        1.23934        6.19480
S         -3.31572        1.64663        6.29655
O         -4.06295        0.75271        5.35288
C         -2.96199        3.20785        5.42731
H          0.66351        0.05995       -0.95455
H          0.53994       -0.95261        0.49236
H          2.10294       -0.24727        0.03582
H          0.69141        5.21640        0.75725
H         -0.11112        6.06802        2.95790
H         -1.10063        5.50102        5.04540
H         -1.85069        4.38651        6.83058
H         -0.82985        2.62061        7.66489
H          0.22214        2.51757        6.26823
H         -1.31258        0.42165        6.88231
H         -1.31592        0.92064        5.17412
H         -2.91988        2.99782        4.35424
H         -3.77781        3.91345        5.60824

--Link1--
%chk=JID_7315.chk
%mem=8GB
%nprocshared=4
# B3LYP/6-311++G(d,p) empiricaldispersion=gd3bj scf=xqc pop=npa geom=check

CID_128380771_JID_7315_Energie_neutraal

0 1

--Link1--
%chk=JID_7315.chk
%mem=8GB
%nprocshared=4
# B3LYP/6-311++G(d,p) empiricaldispersion=gd3bj scf=xqc pop=npa geom=check

CID_128380771_JID_7315_Energie_kation

1 2

--Link1--
%chk=JID_7315.chk
%mem=8GB
%nprocshared=4
# B3LYP/6-311++G(d,p) empiricaldispersion=gd3bj scf=xqc pop=npa geom=check

CID_128380771_JID_7315_Energie_anion

-1 2
