%chk=JID_7879.chk
%mem=8GB
%nprocshared=4
# opt freq B3LYP/6-31G(d) empiricaldispersion=gd3bj scf=xqc

CID_113668604_JID_7879_neutraal

0 1
C          1.05787        0.05188       -0.06292
C          1.11115       -0.70052        1.25800
C          1.38251        0.20074        2.46534
C          0.35136        1.30736        2.70996
C         -1.09365        0.83353        2.89465
C         -1.32486       -0.13695        4.05759
C         -0.94413        0.39262        5.44428
C         -1.64013        1.68928        5.87398
C         -3.17550        1.65894        5.85361
C         -3.82840        0.60107        6.76945
C         -3.48765        0.77557        8.27008
C         -3.55836        2.17930        8.89582
C         -4.92176        2.86968        8.96397
C         -5.94251        2.11102        9.76256
C         -6.49054        2.56270       10.89768
N         -5.26876        0.59828        6.47459
C         -5.92646       -0.65077        6.82854
H          0.20153        0.73128       -0.10381
H          0.95986       -0.65451       -0.89353
H          1.97099        0.63459       -0.22007
H          0.17920       -1.25856        1.39899
H          1.91193       -1.44780        1.20018
H          1.46317       -0.42758        3.36014
H          2.36606        0.67107        2.33949
H          0.66218        1.88225        3.59037
H          0.37851        2.01679        1.87410
H         -1.73231        1.71528        3.02331
H         -1.44047        0.35584        1.97072
H         -2.38179       -0.42905        4.05945
H         -0.76732       -1.06333        3.87537
H         -1.15051       -0.39111        6.18285
H          0.13998        0.55263        5.48572
H         -1.28795        1.95001        6.87825
H         -1.30522        2.50803        5.22576
H         -3.54326        2.65895        6.11682
H         -3.50552        1.49456        4.81956
H         -3.43628       -0.37623        6.46081
H         -4.08431        0.08146        8.87308
H         -2.45347        0.42877        8.40481
H         -3.16676        2.09938        9.91943
H         -2.86310        2.84710        8.37488
H         -4.77149        3.86250        9.40851
H         -5.31028        3.06119        7.95974
H         -6.26079        1.14355        9.38297
H         -7.23067        1.97312       11.43034
H         -6.21778        3.52407       11.32210
H         -5.73972        1.37772        6.92395
H         -5.89206       -0.84961        7.90303
H         -6.97986       -0.59861        6.53570
H         -5.48363       -1.49759        6.29435

--Link1--
%chk=JID_7879.chk
%mem=8GB
%nprocshared=4
# B3LYP/6-311++G(d,p) empiricaldispersion=gd3bj scf=xqc pop=npa geom=check

CID_113668604_JID_7879_Energie_neutraal

0 1

--Link1--
%chk=JID_7879.chk
%mem=8GB
%nprocshared=4
# B3LYP/6-311++G(d,p) empiricaldispersion=gd3bj scf=xqc pop=npa geom=check

CID_113668604_JID_7879_Energie_kation

1 2

--Link1--
%chk=JID_7879.chk
%mem=8GB
%nprocshared=4
# B3LYP/6-311++G(d,p) empiricaldispersion=gd3bj scf=xqc pop=npa geom=check

CID_113668604_JID_7879_Energie_anion

-1 2
