%chk=JID_7129.chk
%mem=8GB
%nprocshared=4
# opt freq B3LYP/6-31G(d) empiricaldispersion=gd3bj scf=xqc

CID_103484114_JID_7129_neutraal

0 1
C          1.05575        0.02476       -0.07924
C          1.11813       -0.27295       -1.56638
O          0.93783       -1.67769       -1.81161
C          2.06484       -2.43750       -1.76803
O          3.17966       -2.03497       -1.46780
C          1.74995       -3.87060       -2.11901
C          2.23255       -4.81744       -1.03006
C          1.09239       -5.22515       -0.11734
O          0.62790       -6.36526       -0.17872
C          0.54257       -4.15031        0.82501
N          0.44119       -4.62945        2.21606
C          1.74546       -5.00884        2.78901
C          2.65780       -3.81494        3.08164
C          1.96005       -2.78609        3.96460
C          0.57876       -2.42853        3.42196
C         -0.25207       -3.69029        3.12576
C         -1.65936       -3.31105        2.65212
H          0.11386       -0.33822        0.34509
H          1.13599        1.09963        0.10526
H          1.86305       -0.48394        0.45702
H          0.30148        0.24604       -2.07883
H          2.05459        0.08775       -2.00730
H          0.67691       -3.98778       -2.30935
H          2.26875       -4.07855       -3.06195
H          2.61516       -5.73516       -1.49346
H          3.04364       -4.40937       -0.41814
H          1.16233       -3.25276        0.75528
H         -0.44128       -3.90073        0.41398
H          1.56575       -5.55601        3.72419
H          2.26879       -5.72252        2.14267
H          2.97621       -3.34208        2.14523
H          3.56953       -4.16428        3.57981
H          2.57571       -1.88359        4.04729
H          1.85375       -3.19368        4.97754
H          0.68802       -1.81965        2.51667
H          0.05827       -1.80207        4.15644
H         -0.39725       -4.22258        4.07674
H         -2.24002       -4.20311        2.39315
H         -2.19888       -2.78874        3.45015
H         -1.63984       -2.64403        1.78420

--Link1--
%chk=JID_7129.chk
%mem=8GB
%nprocshared=4
# B3LYP/6-311++G(d,p) empiricaldispersion=gd3bj scf=xqc pop=npa geom=check

CID_103484114_JID_7129_Energie_neutraal

0 1

--Link1--
%chk=JID_7129.chk
%mem=8GB
%nprocshared=4
# B3LYP/6-311++G(d,p) empiricaldispersion=gd3bj scf=xqc pop=npa geom=check

CID_103484114_JID_7129_Energie_kation

1 2

--Link1--
%chk=JID_7129.chk
%mem=8GB
%nprocshared=4
# B3LYP/6-311++G(d,p) empiricaldispersion=gd3bj scf=xqc pop=npa geom=check

CID_103484114_JID_7129_Energie_anion

-1 2
