%chk=JID_6052.chk
%mem=8GB
%nprocshared=4
# opt freq B3LYP/6-31G(d) empiricaldispersion=gd3bj scf=xqc

CID_103023439_JID_6052_neutraal

0 1
C         -2.13100       -0.04600       -0.06100
N         -0.72962        0.10281        0.25854
C          0.19437       -0.87740        0.53715
C          1.36153       -0.20133        0.83639
C          1.04788        1.15896        0.69296
N         -0.22351        1.34886        0.34242
C         -0.09108       -2.34397        0.52954
C          0.15424       -2.99600       -0.83814
C          1.62851       -3.04694       -1.29908
C          2.58009       -3.75797       -0.31066
C          2.17354       -5.15636        0.18436
C          2.10870       -6.26950       -0.86291
N          3.38940       -6.47293       -1.52447
C          1.79542       -3.61262       -2.70149
O          2.83729       -4.02381       -3.19066
O          0.67742       -3.59730       -3.44812
H         -2.69775        0.00636        0.87154
H         -2.42928        0.76205       -0.73454
H         -2.29543       -1.00410       -0.55758
H          2.31150       -0.63240        1.11852
H          1.68962        2.01909        0.83281
H          0.50609       -2.83493        1.30559
H         -1.13529       -2.51609        0.81785
H         -0.25296       -4.01480       -0.81900
H         -0.43984       -2.45549       -1.58700
H          1.98089       -2.01132       -1.39752
H          3.58941       -3.80630       -0.73818
H          2.68616       -3.12143        0.57679
H          2.89377       -5.45499        0.95833
H          1.20499       -5.10212        0.69399
H          1.82722       -7.20254       -0.36186
H          1.33041       -6.06479       -1.60420
H          3.31776       -7.25516       -2.17400
H          3.60232       -5.66037       -2.11474
H          0.96846       -3.93851       -4.32011

--Link1--
%chk=JID_6052.chk
%mem=8GB
%nprocshared=4
# B3LYP/6-311++G(d,p) empiricaldispersion=gd3bj scf=xqc pop=npa geom=check

CID_103023439_JID_6052_Energie_neutraal

0 1

--Link1--
%chk=JID_6052.chk
%mem=8GB
%nprocshared=4
# B3LYP/6-311++G(d,p) empiricaldispersion=gd3bj scf=xqc pop=npa geom=check

CID_103023439_JID_6052_Energie_kation

1 2

--Link1--
%chk=JID_6052.chk
%mem=8GB
%nprocshared=4
# B3LYP/6-311++G(d,p) empiricaldispersion=gd3bj scf=xqc pop=npa geom=check

CID_103023439_JID_6052_Energie_anion

-1 2
