%chk=JID_2748.chk
%mem=8GB
%nprocshared=4
# opt freq B3LYP/6-31G(d) empiricaldispersion=gd3bj scf=xqc

CID_136271578_JID_2748_neutraal

0 1
C          1.03345       -0.07148        0.06141
C          0.39130       -1.29017        0.70391
C          0.64000       -1.41996        2.19964
N         -1.07184       -1.39921        0.37307
C         -1.45445       -2.45192       -0.40207
C         -2.78172       -2.64726       -0.76869
C         -3.74901       -1.75124       -0.34668
C         -3.36556       -0.67387        0.43550
C         -2.02251       -0.51360        0.78244
C         -1.68802        0.64296        1.61723
N         -1.48559        1.85025        1.18984
O         -1.60301        1.92744       -0.20287
H          0.83939        0.84685        0.61832
H          0.68406        0.06496       -0.96693
H          2.12209       -0.19306        0.03379
H          0.86653       -2.16528        0.24102
H          0.39438       -0.50857        2.74878
H          0.05673       -2.24316        2.62486
H          1.69973       -1.62488        2.38771
H         -0.68805       -3.14839       -0.73467
H         -3.05885       -3.49772       -1.38966
H         -4.79180       -1.88546       -0.63131
H         -4.10973        0.05066        0.76306
H         -1.63513        0.46038        2.70311
H         -1.50601        2.88853       -0.37124

--Link1--
%chk=JID_2748.chk
%mem=8GB
%nprocshared=4
# B3LYP/6-311++G(d,p) empiricaldispersion=gd3bj scf=xqc pop=npa geom=check

CID_136271578_JID_2748_Energie_neutraal

0 1

--Link1--
%chk=JID_2748.chk
%mem=8GB
%nprocshared=4
# B3LYP/6-311++G(d,p) empiricaldispersion=gd3bj scf=xqc pop=npa geom=check

CID_136271578_JID_2748_Energie_kation

1 2

--Link1--
%chk=JID_2748.chk
%mem=8GB
%nprocshared=4
# B3LYP/6-311++G(d,p) empiricaldispersion=gd3bj scf=xqc pop=npa geom=check

CID_136271578_JID_2748_Energie_anion

-1 2
