%chk=JID_8193.chk
%mem=8GB
%nprocshared=4
# opt freq B3LYP/6-31G(d) empiricaldispersion=gd3bj scf=xqc

CID_108355381_JID_8193_neutraal

0 1
C          0.94698       -0.01163        0.08399
C          0.53301        0.64042       -1.22708
C          0.74951       -0.24717       -2.45491
C          0.02114       -1.59943       -2.44490
C         -1.50269       -1.53317       -2.19005
N         -2.21873       -0.78440       -3.23598
C         -2.78186       -1.55258       -4.25029
N         -2.31130       -1.31492       -5.48889
C         -2.82239       -2.01406       -6.53441
C         -3.82358       -2.95659       -6.36836
C         -4.28978       -3.18752       -5.07698
C         -3.76865       -2.48468       -3.99549
N         -5.34906       -4.17180       -4.85449
O         -5.71705       -4.36938       -3.68858
O         -5.80855       -4.75515       -5.84635
N         -2.37990       -1.73281       -7.85550
N         -1.36554       -0.75289       -7.99693
O          0.28850       -2.26206       -3.68774
H          0.32183       -0.87806        0.31808
H          0.84555        0.70290        0.90714
H          1.99093       -0.33842        0.04576
H         -0.51492        0.95356       -1.16535
H          1.11936        1.55802       -1.35877
H          0.47182        0.31760       -3.35379
H          1.82493       -0.43782       -2.57289
H          0.46620       -2.22892       -1.66618
H         -1.88528       -2.55742       -2.10162
H         -1.70187       -1.04841       -1.22925
H         -1.62051       -0.10322       -3.70008
H         -4.23493       -3.47645       -7.22776
H         -4.13589       -2.62905       -2.98484
H         -2.19516       -2.60230       -8.36200
H         -1.75176        0.15058       -7.70255
H         -0.62758       -0.93112       -7.30746
H         -0.27946       -1.85133       -4.36828

--Link1--
%chk=JID_8193.chk
%mem=8GB
%nprocshared=4
# B3LYP/6-311++G(d,p) empiricaldispersion=gd3bj scf=xqc pop=npa geom=check

CID_108355381_JID_8193_Energie_neutraal

0 1

--Link1--
%chk=JID_8193.chk
%mem=8GB
%nprocshared=4
# B3LYP/6-311++G(d,p) empiricaldispersion=gd3bj scf=xqc pop=npa geom=check

CID_108355381_JID_8193_Energie_kation

1 2

--Link1--
%chk=JID_8193.chk
%mem=8GB
%nprocshared=4
# B3LYP/6-311++G(d,p) empiricaldispersion=gd3bj scf=xqc pop=npa geom=check

CID_108355381_JID_8193_Energie_anion

-1 2
