%chk=JID_7932.chk
%mem=8GB
%nprocshared=4
# opt freq B3LYP/6-31G(d) empiricaldispersion=gd3bj scf=xqc

CID_137923308_JID_7932_neutraal

0 1
C         -2.13100       -0.04600       -0.06100
N         -0.80780       -0.23602       -0.60345
C          0.14941       -1.10140       -0.16112
C          1.24664       -0.93505       -0.98698
C          0.82632        0.06618       -1.89586
N         -0.42015        0.48455       -1.66703
C          2.53754       -1.66898       -0.91760
N          3.59307       -0.91667       -1.55864
C          4.76659       -0.44645       -1.06161
O          5.57391        0.05138       -1.84824
C          5.06942       -0.51695        0.42256
C          4.75385        0.76047        1.21352
C          3.26880        1.13786        1.21188
C          3.04128        2.41282        2.01745
O          3.84119        3.48168        1.51533
C          5.23800        3.19869        1.58838
C          5.58774        1.96737        0.75956
H         -2.22534        0.99417        0.26063
H         -2.86020       -0.27565       -0.84191
H         -2.27383       -0.71463        0.79142
H         -0.02281       -1.75379        0.68366
H          1.37774        0.50933       -2.71574
H          2.78432       -1.90132        0.11911
H          2.44848       -2.61612       -1.46063
H          3.53698       -0.81380       -2.56437
H          4.57171       -1.37419        0.88159
H          6.14152       -0.73899        0.51125
H          5.03430        0.55008        2.25599
H          2.93955        1.31998        0.18289
H          2.66355        0.32421        1.62499
H          1.99245        2.71713        1.94229
H          3.26543        2.25820        3.07943
H          5.52813        3.06803        2.63753
H          5.77560        4.07111        1.20349
H          6.65823        1.75089        0.84521
H          5.37461        2.18832       -0.29288

--Link1--
%chk=JID_7932.chk
%mem=8GB
%nprocshared=4
# B3LYP/6-311++G(d,p) empiricaldispersion=gd3bj scf=xqc pop=npa geom=check

CID_137923308_JID_7932_Energie_neutraal

0 1

--Link1--
%chk=JID_7932.chk
%mem=8GB
%nprocshared=4
# B3LYP/6-311++G(d,p) empiricaldispersion=gd3bj scf=xqc pop=npa geom=check

CID_137923308_JID_7932_Energie_kation

1 2

--Link1--
%chk=JID_7932.chk
%mem=8GB
%nprocshared=4
# B3LYP/6-311++G(d,p) empiricaldispersion=gd3bj scf=xqc pop=npa geom=check

CID_137923308_JID_7932_Energie_anion

-1 2
