%chk=JID_7626.chk
%mem=8GB
%nprocshared=4
# opt=(cartesian,calcfc) freq B3LYP/6-31G(d) empiricaldispersion=gd3bj scf=xqc

CID_84001940_JID_7626_neutraal

0 1
6	0.963910	 3.803165	 0.605283
6	1.198080	 2.723313	 -0.449611
8	1.835530	 2.951620	 -1.462092
7	0.646646	 1.494213	 -0.210165
6	-0.137914	 1.037135	 0.924121
6	0.500762	 -0.176150	 1.628082
6	0.349463	 -1.507271	 0.853110
6	-1.122573	 -1.681137	 0.440023
7	-1.557520	 -0.517668	 -0.323537
6	-1.572941	 0.689495	 0.500690
6	-2.698205	 -0.736681	 -1.219149
6	-4.040784	 -1.067795	 -0.574191
7	-4.683689	 0.079684	 0.046050
6	1.256239	 -1.681424	 -0.386800
6	2.696525	 -1.243919	 -0.220575
6	3.673124	 -2.114679	 0.537748
6	3.792281	 -1.955805	 -0.967983
1	1.447493	 4.713129	 0.263534
1	1.401174	 3.517186	 1.584898
1	-0.096754	 3.984754	 0.766000
1	0.757331	 0.843450	 -0.973570
1	-0.186147	 1.849563	 1.635653
1	1.553314	 0.026959	 1.835611
1	-0.003995	 -0.295362	 2.593256
1	0.605483	 -2.306753	 1.559002
1	-1.232874	 -2.565997	 -0.189899
1	-1.744637	 -1.832937	 1.341198
1	-2.173774	 0.558543	 1.417207
1	-2.019664	 1.508929	 -0.065708
1	-2.823362	 0.175549	 -1.816308
1	-2.402575	 -1.543473	 -1.899809
1	-4.704493	 -1.417855	 -1.397634
1	-3.922407	 -1.943358	 0.088731
1	-5.648117	 -0.148109	 0.275123
1	-4.226026	 0.288180	 0.924636
1	1.241594	 -2.743818	 -0.656127
1	0.803534	 -1.159003	 -1.239096
1	2.832170	 -0.165056	 -0.102230
1	4.419239	 -1.638112	 1.170379
1	3.309944	 -3.068002	 0.920090
1	3.525853	 -2.802552	 -1.586934
1	4.617598	 -1.371913	 -1.362192

--Link1--
%chk=JID_7626.chk
%mem=8GB
%nprocshared=4
# B3LYP/6-311++G(d,p) empiricaldispersion=gd3bj scf=xqc pop=npa geom=check

CID_84001940_JID_7626_Energie_neutraal

0 1

--Link1--
%chk=JID_7626.chk
%mem=8GB
%nprocshared=4
# B3LYP/6-311++G(d,p) empiricaldispersion=gd3bj scf=xqc pop=npa geom=check

CID_84001940_JID_7626_Energie_kation

1 2

--Link1--
%chk=JID_7626.chk
%mem=8GB
%nprocshared=4
# B3LYP/6-311++G(d,p) empiricaldispersion=gd3bj scf=xqc pop=npa geom=check

CID_84001940_JID_7626_Energie_anion

-1 2
