%chk=JID_5938.chk
%mem=8GB
%nprocshared=4
# opt freq B3LYP/6-31G(d) empiricaldispersion=gd3bj scf=xqc

CID_151185791_JID_5938_neutraal

0 1
C          0.65300       -1.21900        0.25200
C         -0.87777       -1.20245        0.47109
N         -1.35678        0.13132        0.89709
C         -0.87195        1.22088        0.02181
C          0.66024        1.15078       -0.17772
N          1.21593       -0.14978       -0.58992
C          1.10394       -0.40976       -2.02017
N         -0.25699       -0.52419       -2.52771
N         -0.34383       -0.83776       -3.72638
N         -0.41829       -1.12851       -4.82550
C         -2.62212        0.20998        1.44146
C         -3.19986       -0.68889        2.32724
C         -4.52651       -0.34628        2.72029
C         -4.94256        0.82371        2.13571
S         -3.73665        1.49988        1.13972
H          1.12840       -1.13036        1.23847
H          0.95740       -2.20291       -0.12623
H         -1.09582       -1.96197        1.22996
H         -1.40265       -1.50509       -0.44208
H         -1.38713        1.18434       -0.94467
H         -1.08189        2.19759        0.47480
H          1.13107        1.40832        0.78103
H          0.97509        1.93863       -0.87329
H          1.62937        0.38754       -2.56293
H          1.66044       -1.32959       -2.24629
H         -2.68583       -1.56397        2.70116
H         -5.13558       -0.92613        3.40211
H         -5.89449        1.32212        2.25362

--Link1--
%chk=JID_5938.chk
%mem=8GB
%nprocshared=4
# B3LYP/6-311++G(d,p) empiricaldispersion=gd3bj scf=xqc pop=npa geom=check

CID_151185791_JID_5938_Energie_neutraal

0 1

--Link1--
%chk=JID_5938.chk
%mem=8GB
%nprocshared=4
# B3LYP/6-311++G(d,p) empiricaldispersion=gd3bj scf=xqc pop=npa geom=check

CID_151185791_JID_5938_Energie_kation

1 2

--Link1--
%chk=JID_5938.chk
%mem=8GB
%nprocshared=4
# B3LYP/6-311++G(d,p) empiricaldispersion=gd3bj scf=xqc pop=npa geom=check

CID_151185791_JID_5938_Energie_anion

-1 2
