%chk=JID_7730.chk
%mem=8GB
%nprocshared=4
# opt freq B3LYP/6-31G(d) empiricaldispersion=gd3bj scf=xqc

CID_113829160_JID_7730_neutraal

0 1
C         -0.71700        1.22600        0.24100
C          0.58414        1.16251       -0.57258
O          1.40545        0.06593       -0.15338
C          0.70400       -1.17486       -0.28935
C         -0.60119       -1.18361        0.53108
N         -1.49222       -0.03332        0.17940
C         -0.29581       -1.24495        2.05584
N         -1.52405       -0.98531        2.84321
C         -2.26322       -2.13405        3.17976
C         -1.93473       -2.99024        4.23453
C         -2.68825       -4.12522        4.48714
N         -3.75197       -4.48281        3.73129
C         -4.06762       -3.65864        2.70759
C         -3.36538       -2.49902        2.39851
N         -0.84961       -2.71022        5.13175
O          0.28704       -3.04016        4.76329
O         -1.14183       -2.24845        6.24347
H         -0.48786        1.45375        1.28800
H         -1.34363        2.04366       -0.13086
H          0.37562        1.06623       -1.64482
H          1.15856        2.08271       -0.42651
H          1.37284       -1.97490        0.04508
H          0.49460       -1.34679       -1.35238
H         -1.15500       -2.09541        0.27475
H         -1.78668       -0.16111       -0.79102
H          0.15861       -2.21114        2.30166
H          0.43240       -0.47351        2.33041
H         -2.08907       -0.33595        2.28053
H         -2.46408       -4.79355        5.31424
H         -4.92906       -3.96223        2.11812
H         -3.68098       -1.89174        1.55586

--Link1--
%chk=JID_7730.chk
%mem=8GB
%nprocshared=4
# B3LYP/6-311++G(d,p) empiricaldispersion=gd3bj scf=xqc pop=npa geom=check

CID_113829160_JID_7730_Energie_neutraal

0 1

--Link1--
%chk=JID_7730.chk
%mem=8GB
%nprocshared=4
# B3LYP/6-311++G(d,p) empiricaldispersion=gd3bj scf=xqc pop=npa geom=check

CID_113829160_JID_7730_Energie_kation

1 2

--Link1--
%chk=JID_7730.chk
%mem=8GB
%nprocshared=4
# B3LYP/6-311++G(d,p) empiricaldispersion=gd3bj scf=xqc pop=npa geom=check

CID_113829160_JID_7730_Energie_anion

-1 2
