%chk=JID_5467.chk
%mem=8GB
%nprocshared=4
# opt freq B3LYP/6-31G(d) empiricaldispersion=gd3bj scf=xqc

CID_66166079_JID_5467_neutraal

0 1
C          1.05446        0.04326       -0.07185
C          0.54746       -0.53147       -1.40242
C          1.44902       -1.73354       -1.77077
C         -0.88089       -1.06587       -1.21312
C          0.64801        0.47269       -2.57294
S         -0.07882        2.09868       -2.41021
O          0.44394        2.75905       -1.23673
O         -0.01933        2.74081       -3.70632
N         -1.71421        1.78514       -2.16271
C         -2.47961        2.91705       -1.54151
C         -2.47696        2.82614       -0.01267
C         -2.93788        4.13808        0.61299
O         -3.75518        4.23467        1.51815
O         -2.30314        5.23048        0.15252
O         -3.35100        1.75898        0.39306
H          1.15309       -0.74392        0.68496
H          0.36559        0.78711        0.33902
H          2.03751        0.51175       -0.19080
H          1.42296       -2.50700       -0.99468
H          1.12712       -2.19585       -2.71098
H          2.49340       -1.42283       -1.89086
H         -1.54336       -0.31819       -0.77027
H         -1.31449       -1.38934       -2.16574
H         -0.89086       -1.92912       -0.53704
H          1.70502        0.67599       -2.79086
H          0.21877        0.03982       -3.48521
H         -2.14533        1.51360       -3.04921
H         -2.08614        3.86779       -1.91726
H         -3.50967        2.84106       -1.91304
H         -1.48766        2.59915        0.39306
H         -2.64418        5.97122        0.69737
H         -3.56059        1.91917        1.33328

--Link1--
%chk=JID_5467.chk
%mem=8GB
%nprocshared=4
# B3LYP/6-311++G(d,p) empiricaldispersion=gd3bj scf=xqc pop=npa geom=check

CID_66166079_JID_5467_Energie_neutraal

0 1

--Link1--
%chk=JID_5467.chk
%mem=8GB
%nprocshared=4
# B3LYP/6-311++G(d,p) empiricaldispersion=gd3bj scf=xqc pop=npa geom=check

CID_66166079_JID_5467_Energie_kation

1 2

--Link1--
%chk=JID_5467.chk
%mem=8GB
%nprocshared=4
# B3LYP/6-311++G(d,p) empiricaldispersion=gd3bj scf=xqc pop=npa geom=check

CID_66166079_JID_5467_Energie_anion

-1 2
