%chk=JID_945.chk
%mem=8GB
%nprocshared=4
# opt freq B3LYP/6-31G(d) empiricaldispersion=gd3bj scf=xqc

CID_153536299_JID_945_neutraal

0 1
C          0.96787        0.06629       -0.06762
C          0.34844        1.37513       -0.46992
C         -0.09633        1.53868       -1.72947
C          0.18537        2.46619        0.48414
C          0.58358        2.60699        1.75831
C          1.36541        1.71327        2.58528
C          2.69776        1.64628        2.42958
C          0.63370        0.88369        3.62320
C         -0.03067        1.71105        4.72886
O         -1.37071        2.06135        4.39295
H          0.89573       -0.67980       -0.86786
H          0.45857       -0.36168        0.80082
H          2.03221        0.18697        0.15139
H         -0.56011        2.45985       -2.06885
H         -0.00477        0.74830       -2.46879
H         -0.37300        3.31706        0.08639
H          0.30332        3.53204        2.26509
H          3.31085        0.98743        3.03615
H          3.21307        2.24556        1.68366
H         -0.11199        0.25361        3.12307
H          1.35191        0.20365        4.09951
H         -0.08493        1.11810        5.64755
H          0.52703        2.62601        4.95416
H         -1.38334        2.34174        3.46236

--Link1--
%chk=JID_945.chk
%mem=8GB
%nprocshared=4
# B3LYP/6-311++G(d,p) empiricaldispersion=gd3bj scf=xqc pop=npa geom=check

CID_153536299_JID_945_Energie_neutraal

0 1

--Link1--
%chk=JID_945.chk
%mem=8GB
%nprocshared=4
# B3LYP/6-311++G(d,p) empiricaldispersion=gd3bj scf=xqc pop=npa geom=check

CID_153536299_JID_945_Energie_kation

1 2

--Link1--
%chk=JID_945.chk
%mem=8GB
%nprocshared=4
# B3LYP/6-311++G(d,p) empiricaldispersion=gd3bj scf=xqc pop=npa geom=check

CID_153536299_JID_945_Energie_anion

-1 2
