%chk=JID_3745.chk
%mem=8GB
%nprocshared=4
# opt freq B3LYP/6-31G(d) empiricaldispersion=gd3bj scf=xqc

CID_103578667_JID_3745_neutraal

0 1
C          1.07328       -0.03944       -0.05545
C          0.24077        1.00421       -0.80311
C          0.76301        1.15169       -2.23516
C         -1.25931        0.64411       -0.82961
C         -1.93383        0.51810        0.54444
N         -2.02232        1.81025        1.22704
C         -2.34834        1.67349        2.64714
C         -2.36398        3.03697        3.34074
C         -3.09270        2.80479        4.65887
C         -3.89060        1.50786        4.51001
C         -3.67826        1.00863        3.07561
S         -5.19547        1.19093        2.04385
C         -5.32014        2.98042        1.84965
H          0.91409       -1.04261       -0.46500
H          0.82501       -0.05965        1.00983
H          2.14185        0.18979       -0.13129
H          0.37770        1.97173       -0.30661
H          0.66965        0.21330       -2.79223
H          0.20573        1.92482       -2.77464
H          1.81912        1.44229       -2.23593
H         -1.80043        1.39310       -1.42329
H         -1.38596       -0.31042       -1.35750
H         -2.94141        0.12144        0.38356
H         -1.39627       -0.21608        1.15365
H         -1.14134        2.31341        1.13777
H         -1.53575        1.10085        3.12005
H         -1.35085        3.42000        3.50772
H         -2.88993        3.79381        2.75058
H         -3.74653        3.65062        4.89634
H         -2.37584        2.71048        5.48257
H         -4.94162        1.64719        4.78415
H         -3.48326        0.76884        5.21223
H         -3.52533       -0.07723        3.10099
H         -5.33106        3.48470        2.81804
H         -4.51226        3.36318        1.22326
H         -6.26389        3.20851        1.34568

--Link1--
%chk=JID_3745.chk
%mem=8GB
%nprocshared=4
# B3LYP/6-311++G(d,p) empiricaldispersion=gd3bj scf=xqc pop=npa geom=check

CID_103578667_JID_3745_Energie_neutraal

0 1

--Link1--
%chk=JID_3745.chk
%mem=8GB
%nprocshared=4
# B3LYP/6-311++G(d,p) empiricaldispersion=gd3bj scf=xqc pop=npa geom=check

CID_103578667_JID_3745_Energie_kation

1 2

--Link1--
%chk=JID_3745.chk
%mem=8GB
%nprocshared=4
# B3LYP/6-311++G(d,p) empiricaldispersion=gd3bj scf=xqc pop=npa geom=check

CID_103578667_JID_3745_Energie_anion

-1 2
