%chk=JID_3768.chk
%mem=8GB
%nprocshared=4
# opt freq B3LYP/6-31G(d) empiricaldispersion=gd3bj scf=xqc

CID_122240193_JID_3768_neutraal

0 1
C          1.00700       -1.41200       -0.03900
C          0.42414        0.00158       -0.03089
C         -0.74926        0.20453        0.97019
C         -1.73623       -0.12431       -0.18322
C         -0.60340        0.27786       -1.16607
C         -3.02763        0.69365       -0.16435
C         -3.96555        0.43236       -1.36978
C         -4.34772       -1.05348       -1.48105
C         -5.26637        1.23447       -1.15891
C         -3.32841        0.97392       -2.64534
O         -3.02019        2.13832       -2.85108
O         -3.09764        0.05143       -3.59612
C          1.52182        1.05500        0.07953
H          1.56806       -1.60594        0.88161
H          0.22873       -2.17810       -0.11883
H          1.68954       -1.54564       -0.88530
H         -0.78130       -0.48373        1.82048
H         -0.83856        1.22758        1.35667
H         -1.94445       -1.20232       -0.20711
H         -0.64045        1.32625       -1.48578
H         -0.51325       -0.35097       -2.05689
H         -3.56822        0.46059        0.76282
H         -2.78138        1.76289       -0.11425
H         -4.76342       -1.42580       -0.53809
H         -5.10258       -1.20920       -2.26111
H         -3.49108       -1.68329       -1.74269
H         -5.06223        2.30473       -1.03704
H         -5.93958        1.12983       -2.01799
H         -5.80322        0.89422       -0.26624
H         -2.68971        0.56384       -4.32541
H          1.10886        2.06972        0.08615
H          2.09632        0.92510        1.00300
H          2.21606        0.98543       -0.76484

--Link1--
%chk=JID_3768.chk
%mem=8GB
%nprocshared=4
# B3LYP/6-311++G(d,p) empiricaldispersion=gd3bj scf=xqc pop=npa geom=check

CID_122240193_JID_3768_Energie_neutraal

0 1

--Link1--
%chk=JID_3768.chk
%mem=8GB
%nprocshared=4
# B3LYP/6-311++G(d,p) empiricaldispersion=gd3bj scf=xqc pop=npa geom=check

CID_122240193_JID_3768_Energie_kation

1 2

--Link1--
%chk=JID_3768.chk
%mem=8GB
%nprocshared=4
# B3LYP/6-311++G(d,p) empiricaldispersion=gd3bj scf=xqc pop=npa geom=check

CID_122240193_JID_3768_Energie_anion

-1 2
