%chk=JID_8852.chk
%mem=8GB
%nprocshared=4
# opt freq B3LYP/6-31G(d) empiricaldispersion=gd3bj scf=xqc

CID_121527336_JID_8852_neutraal

0 1
C          1.05023       -0.04143       -0.07590
O          0.44624       -1.27510       -0.46714
C          1.29330       -2.12086       -1.13375
O          2.46303       -1.85479       -1.38431
C          0.64420       -3.36920       -1.50447
C         -0.66569       -3.75614       -1.28446
N         -0.74028       -5.00408       -1.82226
N          0.43777       -5.38630       -2.34047
N          1.29416       -4.38981       -2.15969
C         -1.88483       -5.88912       -1.87366
C         -2.31048       -6.21932       -3.30405
N         -1.40108       -7.22280       -3.90461
S         -1.81975       -7.79297       -5.43959
O         -2.40176       -6.68371       -6.16157
O         -0.66064       -8.50039       -5.93208
C         -3.15267       -9.00224       -5.17794
C         -3.86795       -9.38713       -6.44897
C         -2.93433      -10.36163       -5.78877
H          0.30323        0.54307        0.46831
H          1.36080        0.52844       -0.95715
H          1.89948       -0.22199        0.59063
H         -1.49981       -3.26137       -0.80899
H         -1.62502       -6.79005       -1.30656
H         -2.70646       -5.38312       -1.35430
H         -3.32305       -6.63587       -3.27894
H         -2.31462       -5.30939       -3.91423
H         -0.41693       -6.91768       -3.91862
H         -3.72501       -8.92038       -4.26758
H         -4.93263       -9.58034       -6.39117
H         -3.55350       -8.94266       -7.38784
H         -1.99926      -10.58457       -6.29118
H         -3.36658      -11.21752       -5.28312

--Link1--
%chk=JID_8852.chk
%mem=8GB
%nprocshared=4
# B3LYP/6-311++G(d,p) empiricaldispersion=gd3bj scf=xqc pop=npa geom=check

CID_121527336_JID_8852_Energie_neutraal

0 1

--Link1--
%chk=JID_8852.chk
%mem=8GB
%nprocshared=4
# B3LYP/6-311++G(d,p) empiricaldispersion=gd3bj scf=xqc pop=npa geom=check

CID_121527336_JID_8852_Energie_kation

1 2

--Link1--
%chk=JID_8852.chk
%mem=8GB
%nprocshared=4
# B3LYP/6-311++G(d,p) empiricaldispersion=gd3bj scf=xqc pop=npa geom=check

CID_121527336_JID_8852_Energie_anion

-1 2
