%chk=JID_8146.chk
%mem=8GB
%nprocshared=4
# opt freq B3LYP/6-31G(d) empiricaldispersion=gd3bj scf=xqc

CID_81236499_JID_8146_neutraal

0 1
C          0.95241       -0.08533       -0.02132
C          1.74830        1.20865        0.06999
C          1.79023        1.94445       -1.24669
C          2.57498        1.45453       -2.30496
C          2.61618        2.11361       -3.53536
C          1.90270        3.30786       -3.68461
C          1.11953        3.80453       -2.64125
C          1.05573        3.12035       -1.42943
N          3.36901        1.68074       -4.64281
C          4.00700        0.49150       -4.91891
O          4.88624        0.46303       -5.77986
C          3.62841       -0.76984       -4.26208
C          2.31421       -1.25958       -4.19257
C          2.12431       -2.51702       -3.61112
C          3.20978       -3.18439       -3.06061
N          4.47276       -2.71286       -3.08547
C          4.65785       -1.52791       -3.71407
N          1.23554       -0.67130       -4.87921
H         -0.07760        0.10614       -0.34084
H          0.91984       -0.57827        0.95547
H          1.40130       -0.78368       -0.73534
H          1.30931        1.84872        0.84484
H          2.77382        0.99477        0.39483
H          3.17495        0.57085       -2.11726
H          1.93100        3.85944       -4.62134
H          0.55893        4.72654       -2.77396
H          0.44087        3.51835       -0.62507
H          3.57916        2.38312       -5.34412
H          1.14513       -2.98326       -3.59142
H          3.08668       -4.15536       -2.58867
H          5.69081       -1.19191       -3.76479
H          0.32375       -0.89775       -4.49309
H          1.34014        0.33113       -5.02356

--Link1--
%chk=JID_8146.chk
%mem=8GB
%nprocshared=4
# B3LYP/6-311++G(d,p) empiricaldispersion=gd3bj scf=xqc pop=npa geom=check

CID_81236499_JID_8146_Energie_neutraal

0 1

--Link1--
%chk=JID_8146.chk
%mem=8GB
%nprocshared=4
# B3LYP/6-311++G(d,p) empiricaldispersion=gd3bj scf=xqc pop=npa geom=check

CID_81236499_JID_8146_Energie_kation

1 2

--Link1--
%chk=JID_8146.chk
%mem=8GB
%nprocshared=4
# B3LYP/6-311++G(d,p) empiricaldispersion=gd3bj scf=xqc pop=npa geom=check

CID_81236499_JID_8146_Energie_anion

-1 2
