%chk=JID_4679.chk
%mem=8GB
%nprocshared=4
# opt freq B3LYP/6-31G(d) empiricaldispersion=gd3bj scf=xqc

CID_67053795_JID_4679_neutraal

0 1
C          0.93633       -0.00687       -0.07680
C          0.34961       -0.18178        1.34065
C         -1.06095        0.45988        1.48336
C         -1.24870        1.89878        1.01649
C         -0.53906        2.92688        1.88003
C          0.97532        2.85505        1.77184
C          1.60241        1.74460        2.58337
C          1.33901        0.36312        2.39989
C          2.04595       -0.53812        3.23499
C          2.95705       -0.11377        4.20742
C          3.19222        1.23597        4.36720
C          2.53145        2.15486        3.56865
O          4.06982        1.70633        5.29663
C          0.09434       -1.71484        1.48598
H          1.13890        1.03110       -0.34214
H          0.25154       -0.40291       -0.83601
H          1.88680       -0.54562       -0.17532
H         -1.39433        0.37820        2.52742
H         -1.77658       -0.13486        0.89801
H         -0.95408        2.00970       -0.03296
H         -2.32311        2.12244        1.04861
H         -0.85865        3.92048        1.54063
H         -0.86076        2.83602        2.92486
H          1.36076        3.82047        2.12732
H          1.30710        2.79865        0.73123
H          1.90941       -1.61278        3.15403
H          3.46494       -0.85338        4.81747
H          2.74659        3.21103        3.71891
H          4.44651        0.94967        5.77444
H         -0.63456       -2.06793        0.74572
H          1.00576       -2.30089        1.31893
H         -0.30375       -1.96532        2.47648

--Link1--
%chk=JID_4679.chk
%mem=8GB
%nprocshared=4
# B3LYP/6-311++G(d,p) empiricaldispersion=gd3bj scf=xqc pop=npa geom=check

CID_67053795_JID_4679_Energie_neutraal

0 1

--Link1--
%chk=JID_4679.chk
%mem=8GB
%nprocshared=4
# B3LYP/6-311++G(d,p) empiricaldispersion=gd3bj scf=xqc pop=npa geom=check

CID_67053795_JID_4679_Energie_kation

1 2

--Link1--
%chk=JID_4679.chk
%mem=8GB
%nprocshared=4
# B3LYP/6-311++G(d,p) empiricaldispersion=gd3bj scf=xqc pop=npa geom=check

CID_67053795_JID_4679_Energie_anion

-1 2
