%chk=JID_10688.chk
%mem=8GB
%nprocshared=4
# opt freq B3LYP/6-31G(d) empiricaldispersion=gd3bj scf=xqc

CID_28334178_JID_10688_neutraal

0 1
C          2.49200        0.00400       -0.01400
C          1.08015       -0.38356       -0.33624
C          0.64350       -1.69499       -0.13016
C         -0.66748       -2.06138       -0.44534
C         -1.56666       -1.13057       -0.97529
C         -1.11529        0.17067       -1.21641
C          0.19638        0.54176       -0.90147
N         -2.90500       -1.48256       -1.23416
C         -3.67111       -1.84091       -0.02019
C         -4.15206       -0.57981        0.70799
O         -5.11727        0.05373        0.25644
N         -3.46977       -0.01554        1.74639
C         -2.37717       -0.45043        2.50975
C         -1.52387        0.53881        3.01317
C         -0.39023        0.21256        3.77742
C         -0.11608       -1.13841        4.05479
C         -1.01048       -2.11925        3.60416
C         -2.13593       -1.77717        2.84706
C          1.09109       -1.54969        4.85143
C          0.52180        1.31402        4.24323
H          2.87125       -0.57417        0.83524
H          3.13666       -0.17342       -0.88018
H          2.55256        1.06194        0.26218
H          1.31707       -2.44149        0.28301
H         -0.98210       -3.08782       -0.27932
H         -1.78467        0.91588       -1.63714
H          0.51932        1.56178       -1.09510
H         -3.39042       -0.73594       -1.73273
H         -4.57420       -2.37376       -0.34301
H         -3.13508       -2.54692        0.60578
H         -3.75034        0.94984        1.87409
H         -1.71515        1.58344        2.77554
H         -0.84107       -3.16662        3.84631
H         -2.82784       -2.56924        2.58838
H          0.98744       -1.22357        5.89094
H          1.22064       -2.63717        4.85090
H          2.00035       -1.11710        4.42172
H          1.46982        1.27374        3.69783
H          0.07771        2.30094        4.07457
H          0.71363        1.22754        5.31736

--Link1--
%chk=JID_10688.chk
%mem=8GB
%nprocshared=4
# B3LYP/6-311++G(d,p) empiricaldispersion=gd3bj scf=xqc pop=npa geom=check

CID_28334178_JID_10688_Energie_neutraal

0 1

--Link1--
%chk=JID_10688.chk
%mem=8GB
%nprocshared=4
# B3LYP/6-311++G(d,p) empiricaldispersion=gd3bj scf=xqc pop=npa geom=check

CID_28334178_JID_10688_Energie_kation

1 2

--Link1--
%chk=JID_10688.chk
%mem=8GB
%nprocshared=4
# B3LYP/6-311++G(d,p) empiricaldispersion=gd3bj scf=xqc pop=npa geom=check

CID_28334178_JID_10688_Energie_anion

-1 2
