%chk=JID_3708.chk
%mem=8GB
%nprocshared=4
# opt freq B3LYP/6-31G(d) empiricaldispersion=gd3bj scf=xqc

CID_115386258_JID_3708_neutraal

0 1
C          1.02770       -0.04364       -0.08561
C         -0.32425       -0.75932       -0.00074
C         -1.52518        0.17219       -0.28483
S         -1.52278        0.86307       -2.01163
C         -1.49777       -0.68250       -2.97951
C         -0.29338       -1.56893       -2.69120
S         -0.30284       -2.28962       -1.01743
C         -2.91879       -0.43714        0.03345
C         -3.10146       -0.96024        1.47114
C         -2.72146       -0.00640        2.62593
C         -3.55060        1.27740        2.65106
C         -2.87892       -0.74040        3.96248
O         -3.95042        0.52674       -0.21893
H          1.04089        0.81795        0.59156
H          1.25906        0.32604       -1.08848
H          1.84314       -0.70735        0.22403
H         -0.40380       -1.11433        1.03213
H         -1.41192        1.06992        0.33470
H         -1.46939       -0.38770       -4.03428
H         -2.43887       -1.22347       -2.83701
H          0.64832       -1.03730       -2.86199
H         -0.30324       -2.41041       -3.39267
H         -3.12804       -1.27734       -0.63770
H         -4.15430       -1.24784        1.59823
H         -2.51903       -1.88401        1.57790
H         -1.66556        0.27232        2.53478
H         -4.62359        1.05860        2.64948
H         -3.32873        1.86587        3.54817
H         -3.32593        1.91437        1.79094
H         -2.25717       -1.64168        3.98740
H         -2.56979       -0.10163        4.79675
H         -3.91893       -1.03963        4.13182
H         -3.72188        0.96565       -1.06101

--Link1--
%chk=JID_3708.chk
%mem=8GB
%nprocshared=4
# B3LYP/6-311++G(d,p) empiricaldispersion=gd3bj scf=xqc pop=npa geom=check

CID_115386258_JID_3708_Energie_neutraal

0 1

--Link1--
%chk=JID_3708.chk
%mem=8GB
%nprocshared=4
# B3LYP/6-311++G(d,p) empiricaldispersion=gd3bj scf=xqc pop=npa geom=check

CID_115386258_JID_3708_Energie_kation

1 2

--Link1--
%chk=JID_3708.chk
%mem=8GB
%nprocshared=4
# B3LYP/6-311++G(d,p) empiricaldispersion=gd3bj scf=xqc pop=npa geom=check

CID_115386258_JID_3708_Energie_anion

-1 2
