%chk=JID_8390.chk
%mem=8GB
%nprocshared=4
# opt freq B3LYP/6-31G(d) empiricaldispersion=gd3bj scf=xqc

CID_113877293_JID_8390_neutraal

0 1
C          1.06351       -0.06269        0.04513
O          1.63727        1.06313        0.71457
C          1.77994        0.79987        2.05228
C          2.99870        0.36178        2.57786
C          3.10235        0.12414        3.95407
C          2.00366        0.33772        4.79230
C          0.79132        0.80681        4.26907
C          0.69230        1.05010        2.89264
C         -0.39948        1.03089        5.16882
O         -0.82852       -0.16231        5.82037
C         -1.36963       -1.17413        4.97219
C         -2.88589       -1.06174        4.80274
C         -3.35064        0.08374        3.90276
C         -4.73114       -0.36170        3.45086
C         -4.54689       -1.84155        3.16377
C         -3.48389       -2.32068        4.15119
C          4.13584        0.13871        1.73482
N          5.06541       -0.06808        1.07020
H          0.87301        0.22716       -0.99248
H          0.10908       -0.35983        0.49387
H          1.76045       -0.90749        0.04054
H          4.03758       -0.23132        4.38337
H          2.09233        0.13557        5.85895
H         -0.23472        1.42568        2.46518
H         -0.10923        1.74235        5.95089
H         -1.22777        1.49646        4.63000
H         -0.85968       -1.21576        4.00385
H         -1.15161       -2.12401        5.47466
H         -3.34347       -0.92174        5.79156
H         -3.39997        1.03852        4.43378
H         -2.68932        0.19903        3.03568
H         -5.08130        0.19127        2.57449
H         -5.45880       -0.22044        4.25858
H         -4.18307       -1.98001        2.13848
H         -5.48303       -2.39962        3.26013
H         -2.72926       -2.91718        3.62566
H         -3.92753       -2.96549        4.91818

--Link1--
%chk=JID_8390.chk
%mem=8GB
%nprocshared=4
# B3LYP/6-311++G(d,p) empiricaldispersion=gd3bj scf=xqc pop=npa geom=check

CID_113877293_JID_8390_Energie_neutraal

0 1

--Link1--
%chk=JID_8390.chk
%mem=8GB
%nprocshared=4
# B3LYP/6-311++G(d,p) empiricaldispersion=gd3bj scf=xqc pop=npa geom=check

CID_113877293_JID_8390_Energie_kation

1 2

--Link1--
%chk=JID_8390.chk
%mem=8GB
%nprocshared=4
# B3LYP/6-311++G(d,p) empiricaldispersion=gd3bj scf=xqc pop=npa geom=check

CID_113877293_JID_8390_Energie_anion

-1 2
