%chk=JID_4683.chk
%mem=8GB
%nprocshared=4
# opt freq B3LYP/6-31G(d) empiricaldispersion=gd3bj scf=xqc

CID_153080372_JID_4683_neutraal

0 1
C          1.00521       -0.03362        0.09404
C         -0.07294       -1.01634       -0.37600
C          0.54527       -2.14862       -1.21253
C          1.33596       -3.15148       -0.37558
C          0.51862       -3.75179        0.78615
C         -0.13450       -2.62204        1.61958
C         -0.93768       -1.59128        0.78297
C         -1.62444       -0.47568        1.60666
C         -2.67627        0.24333        1.12628
C         -3.34327        0.00288       -0.20965
C         -3.31077        1.40704        1.85541
C         -1.03982       -0.22649        2.98328
C          1.46856       -4.55586        1.69663
C         -0.55087       -4.72439        0.25167
H          0.55931        0.86006        0.54178
H          1.61245        0.30488       -0.75280
H          1.68125       -0.47851        0.82977
H         -0.72322       -0.45085       -1.05543
H         -0.25396       -2.67166       -1.75137
H          1.20105       -1.72849       -1.98509
H          2.22977       -2.65259        0.02065
H          1.70407       -3.95148       -1.03059
H          0.65856       -2.10442        2.17426
H         -0.79501       -3.07116        2.37345
H         -1.74672       -2.17673        0.32888
H         -4.42915       -0.06143       -0.07824
H         -3.12831        0.83548       -0.88832
H         -3.03638       -0.91753       -0.70824
H         -3.64023        2.17068        1.14093
H         -4.18595        1.06851        2.41822
H         -2.62537        1.92248        2.53167
H         -1.10194       -1.13195        3.59543
H          0.00868        0.07681        2.90643
H         -1.55551        0.54401        3.55823
H          0.92703       -5.00143        2.53870
H          1.95455       -5.36757        1.14346
H          2.25813       -3.91816        2.11021
H         -1.26702       -4.23750       -0.41581
H         -0.08818       -5.54414       -0.31006
H         -1.12117       -5.17016        1.07463

--Link1--
%chk=JID_4683.chk
%mem=8GB
%nprocshared=4
# B3LYP/6-311++G(d,p) empiricaldispersion=gd3bj scf=xqc pop=npa geom=check

CID_153080372_JID_4683_Energie_neutraal

0 1

--Link1--
%chk=JID_4683.chk
%mem=8GB
%nprocshared=4
# B3LYP/6-311++G(d,p) empiricaldispersion=gd3bj scf=xqc pop=npa geom=check

CID_153080372_JID_4683_Energie_kation

1 2

--Link1--
%chk=JID_4683.chk
%mem=8GB
%nprocshared=4
# B3LYP/6-311++G(d,p) empiricaldispersion=gd3bj scf=xqc pop=npa geom=check

CID_153080372_JID_4683_Energie_anion

-1 2
