%chk=JID_4065.chk
%mem=8GB
%nprocshared=4
# opt freq B3LYP/6-31G(d) empiricaldispersion=gd3bj scf=xqc

CID_103486483_JID_4065_neutraal

0 1
C          0.94703       -0.04722        0.07046
C          1.40165       -1.08783       -0.93746
O          2.16781       -2.12734       -0.33185
C          3.47853       -1.70852        0.06743
C          4.29100       -2.93295        0.51982
C          4.67525       -3.87294       -0.62357
O          5.39552       -2.62233        1.38259
C          6.44191       -1.86423        0.88832
N          6.33588       -1.28951       -0.32253
C          7.39757       -0.57206       -0.71301
N          8.52620       -0.38381       -0.01557
C          8.56845       -0.98119        1.19414
C          7.52939       -1.70634        1.74551
N          7.66449       -2.41375        2.95042
H          0.46651       -0.52464        0.93043
H          0.24000        0.64946       -0.38952
H          1.79206        0.53360        0.45202
H          0.51883       -1.56338       -1.37753
H          1.96460       -0.62785       -1.75736
H          3.95739       -1.20159       -0.77557
H          3.40060       -0.99939        0.89840
H          3.62079       -3.52354        1.15907
H          5.28249       -3.37173       -1.38273
H          5.26595       -4.71373       -0.24474
H          3.78402       -4.26946       -1.12040
H          7.34041       -0.10119       -1.68857
H          9.50623       -0.85700        1.72758
H          8.24354       -1.95540        3.64611
H          6.75842       -2.70547        3.31641

--Link1--
%chk=JID_4065.chk
%mem=8GB
%nprocshared=4
# B3LYP/6-311++G(d,p) empiricaldispersion=gd3bj scf=xqc pop=npa geom=check

CID_103486483_JID_4065_Energie_neutraal

0 1

--Link1--
%chk=JID_4065.chk
%mem=8GB
%nprocshared=4
# B3LYP/6-311++G(d,p) empiricaldispersion=gd3bj scf=xqc pop=npa geom=check

CID_103486483_JID_4065_Energie_kation

1 2

--Link1--
%chk=JID_4065.chk
%mem=8GB
%nprocshared=4
# B3LYP/6-311++G(d,p) empiricaldispersion=gd3bj scf=xqc pop=npa geom=check

CID_103486483_JID_4065_Energie_anion

-1 2
