%chk=JID_7746.chk
%mem=8GB
%nprocshared=4
# opt freq B3LYP/6-31G(d) empiricaldispersion=gd3bj scf=xqc

CID_17752095_JID_7746_neutraal

0 1
C          0.91924        0.05878        0.00485
C          0.50137       -1.39167        0.18177
N          1.25995       -2.10114        1.25062
C          0.43888       -2.89448        2.20781
C          1.06680       -4.21084        2.62572
C          2.65425       -1.97229        1.36322
N          3.43222       -1.91049        0.21508
C          4.55947       -0.97899        0.11227
C          3.10156       -2.68989       -0.98487
N          3.24747       -1.84951        2.62075
C          2.53131       -1.09179        3.66899
C          4.45928       -2.62749        3.08828
C          4.71916       -3.95215        2.34766
C          6.00141       -4.03776        1.53313
C          7.18298       -3.42802        2.26583
C          6.92800       -1.96001        2.55400
C          5.67510       -1.73325        3.39057
H          0.89637        0.58850        0.96227
H          0.23670        0.56571       -0.68447
H          1.92644        0.14862       -0.40583
H         -0.55876       -1.38712        0.46209
H          0.57214       -1.95801       -0.74986
H          0.18742       -2.26911        3.06853
H         -0.50764       -3.13976        1.71107
H          1.92135       -4.06151        3.28750
H          0.33772       -4.81928        3.17040
H          1.40171       -4.77792        1.75173
H          5.47413       -1.52591       -0.11479
H          4.36180       -0.28296       -0.70897
H          4.67325       -0.39365        1.02631
H          2.37755       -3.47400       -0.74659
H          2.70979       -2.02470       -1.75842
H          4.01072       -3.17564       -1.35212
H          2.10340       -1.78422        4.39824
H          3.23613       -0.42549        4.17395
H          1.74924       -0.46763        3.22817
H          4.12669       -2.96818        4.08133
H          4.78510       -4.73992        3.11220
H          3.87182       -4.24189        1.71954
H          5.86716       -3.54715        0.56593
H          6.21518       -5.08993        1.30997
H          8.08677       -3.53008        1.65458
H          7.36553       -3.96865        3.20233
H          6.85477       -1.40866        1.61275
H          7.79203       -1.53550        3.07949
H          5.40450       -0.67239        3.34418
H          5.95794       -1.91373        4.43733

--Link1--
%chk=JID_7746.chk
%mem=8GB
%nprocshared=4
# B3LYP/6-311++G(d,p) empiricaldispersion=gd3bj scf=xqc pop=npa geom=check

CID_17752095_JID_7746_Energie_neutraal

0 1

--Link1--
%chk=JID_7746.chk
%mem=8GB
%nprocshared=4
# B3LYP/6-311++G(d,p) empiricaldispersion=gd3bj scf=xqc pop=npa geom=check

CID_17752095_JID_7746_Energie_kation

1 2

--Link1--
%chk=JID_7746.chk
%mem=8GB
%nprocshared=4
# B3LYP/6-311++G(d,p) empiricaldispersion=gd3bj scf=xqc pop=npa geom=check

CID_17752095_JID_7746_Energie_anion

-1 2
