%chk=JID_8555.chk
%mem=8GB
%nprocshared=4
# opt freq B3LYP/6-31G(d) empiricaldispersion=gd3bj scf=xqc

CID_4175763_JID_8555_neutraal

0 1
C          0.97506        0.08142       -0.05243
C          1.25829       -0.45764       -1.44344
O          1.39216       -1.88714       -1.39336
C          2.70910       -2.26179       -1.43548
C          3.45986       -2.30135       -2.61992
C          4.83856       -2.58142       -2.53484
C          5.43212       -2.85134       -1.29245
C          4.64196       -2.91614       -0.13966
C          3.28358       -2.62005       -0.21266
C          6.88550       -3.09873       -1.13214
O          7.26097       -3.99220       -0.37533
C          7.86246       -2.21454       -1.86067
O          5.62808       -2.55041       -3.66066
C          5.49446       -3.75870       -4.41917
C          6.66757       -3.84630       -5.37849
O          2.97053       -2.02294       -3.86998
C          1.69106       -2.55584       -4.22706
C          1.61185       -4.07376       -4.16108
H          0.11089       -0.42499        0.38981
H          0.77543        1.15623       -0.08726
H          1.82455       -0.09143        0.61549
H          0.40321       -0.23890       -2.09228
H          2.13243        0.04191       -1.88046
H          5.08926       -3.16830        0.82008
H          2.67677       -2.63552        0.68939
H          7.40129       -1.27026       -2.16181
H          8.68730       -1.97066       -1.18421
H          8.25325       -2.73771       -2.73562
H          5.49159       -4.64075       -3.76666
H          4.56782       -3.73255       -4.99909
H          7.61470       -3.87301       -4.83071
H          6.59602       -4.74362       -5.99955
H          6.69967       -2.96670       -6.02987
H          0.88055       -2.08305       -3.66912
H          1.53030       -2.25954       -5.27042
H          1.72953       -4.44203       -3.13791
H          0.64447       -4.42039       -4.53704
H          2.40104       -4.53250       -4.76344

--Link1--
%chk=JID_8555.chk
%mem=8GB
%nprocshared=4
# B3LYP/6-311++G(d,p) empiricaldispersion=gd3bj scf=xqc pop=npa geom=check

CID_4175763_JID_8555_Energie_neutraal

0 1

--Link1--
%chk=JID_8555.chk
%mem=8GB
%nprocshared=4
# B3LYP/6-311++G(d,p) empiricaldispersion=gd3bj scf=xqc pop=npa geom=check

CID_4175763_JID_8555_Energie_kation

1 2

--Link1--
%chk=JID_8555.chk
%mem=8GB
%nprocshared=4
# B3LYP/6-311++G(d,p) empiricaldispersion=gd3bj scf=xqc pop=npa geom=check

CID_4175763_JID_8555_Energie_anion

-1 2
