%chk=JID_6163.chk
%mem=8GB
%nprocshared=4
# opt freq B3LYP/6-31G(d) empiricaldispersion=gd3bj scf=xqc

CID_146614600_JID_6163_neutraal

0 1
C          0.92375       -0.00329       -0.06461
C          0.27547       -1.12528        0.75330
C          0.66885       -1.04725        2.23062
N         -1.18766       -1.20674        0.57368
C         -1.71242       -2.44567        0.24588
O         -1.04789       -3.47545        0.13768
C         -3.16868       -2.51003        0.01660
C         -3.92721       -1.42680        0.23159
C         -5.42476       -1.49408       -0.02097
O         -5.82172       -2.64983       -0.77042
C         -5.25704       -3.84499       -0.23568
C         -3.74599       -3.82276       -0.42964
N         -3.35457       -0.24875        0.69310
C         -1.97774       -0.10290        0.88673
O         -1.50185        0.94805        1.32013
C         -4.19928        0.91109        0.97496
H          0.68874        0.99237        0.32110
H          0.59617       -0.04702       -1.10881
H          2.01458       -0.10472       -0.04934
H          0.71907       -2.05198        0.36910
H          0.33722       -0.11560        2.69861
H          0.22658       -1.87710        2.79242
H          1.75677       -1.10579        2.34269
H         -5.75504       -0.63168       -0.60798
H         -5.97216       -1.49135        0.92871
H         -5.53153       -3.94389        0.82197
H         -5.69070       -4.69590       -0.77077
H         -3.30842       -4.66313        0.12016
H         -3.51021       -3.95519       -1.49264
H         -4.60085        1.29512        0.03206
H         -5.01626        0.61865        1.64184
H         -3.64957        1.72081        1.46224

--Link1--
%chk=JID_6163.chk
%mem=8GB
%nprocshared=4
# B3LYP/6-311++G(d,p) empiricaldispersion=gd3bj scf=xqc pop=npa geom=check

CID_146614600_JID_6163_Energie_neutraal

0 1

--Link1--
%chk=JID_6163.chk
%mem=8GB
%nprocshared=4
# B3LYP/6-311++G(d,p) empiricaldispersion=gd3bj scf=xqc pop=npa geom=check

CID_146614600_JID_6163_Energie_kation

1 2

--Link1--
%chk=JID_6163.chk
%mem=8GB
%nprocshared=4
# B3LYP/6-311++G(d,p) empiricaldispersion=gd3bj scf=xqc pop=npa geom=check

CID_146614600_JID_6163_Energie_anion

-1 2
