%chk=JID_4813.chk
%mem=8GB
%nprocshared=4
# opt freq B3LYP/6-31G(d) empiricaldispersion=gd3bj scf=xqc

CID_64587067_JID_4813_neutraal

0 1
C          0.97775        0.08421       -0.04912
C          0.40656        1.25455       -0.85881
C          1.35746        1.63460       -1.99969
N         -1.00277        1.05529       -1.22869
C         -1.61797        2.23037       -1.83996
C         -1.41072       -0.20566       -1.86631
C         -1.00207       -0.46550       -3.33271
N          0.11667       -1.43189       -3.39947
S          0.67784       -1.84101       -4.93269
O         -0.04880       -1.06694       -5.91384
O          2.11930       -1.76259       -4.83598
C          0.21030       -3.57828       -5.08036
C          0.87008       -4.42980       -4.00066
C         -1.30344       -3.75652       -5.07337
H          1.12055       -0.81347       -0.65674
H          0.32047       -0.16897        0.79019
H          1.95325        0.35245        0.37215
H          0.41673        2.10656       -0.16421
H          1.45719        0.84677       -2.74698
H          1.03250        2.54697       -2.50929
H          2.36046        1.83354       -1.60478
H         -1.25579        2.42218       -2.85442
H         -2.70680        2.11583       -1.88618
H         -1.43029        3.12548       -1.23624
H         -1.12198       -1.05434       -1.23455
H         -2.50933       -0.22408       -1.83601
H         -1.86199       -0.89144       -3.86227
H         -0.72113        0.46432       -3.83488
H          0.91334       -1.19902       -2.80492
H          0.59632       -3.89018       -6.05850
H          0.53193       -4.14485       -2.99903
H          0.63457       -5.48923       -4.14671
H          1.95957       -4.32512       -4.02562
H         -1.77606       -3.15708       -5.85804
H         -1.56884       -4.80434       -5.24946
H         -1.74047       -3.45664       -4.11557

--Link1--
%chk=JID_4813.chk
%mem=8GB
%nprocshared=4
# B3LYP/6-311++G(d,p) empiricaldispersion=gd3bj scf=xqc pop=npa geom=check

CID_64587067_JID_4813_Energie_neutraal

0 1

--Link1--
%chk=JID_4813.chk
%mem=8GB
%nprocshared=4
# B3LYP/6-311++G(d,p) empiricaldispersion=gd3bj scf=xqc pop=npa geom=check

CID_64587067_JID_4813_Energie_kation

1 2

--Link1--
%chk=JID_4813.chk
%mem=8GB
%nprocshared=4
# B3LYP/6-311++G(d,p) empiricaldispersion=gd3bj scf=xqc pop=npa geom=check

CID_64587067_JID_4813_Energie_anion

-1 2
