%chk=JID_3940.chk
%mem=8GB
%nprocshared=4
# opt freq B3LYP/6-31G(d) empiricaldispersion=gd3bj scf=xqc

CID_83066749_JID_3940_neutraal

0 1
C          1.02796        0.09590       -0.00469
C          0.37451       -0.80610        1.01843
S          1.45651       -1.26339        2.36283
O          2.03477       -0.04514        2.90106
O          0.70813       -2.14812        3.23895
C          2.78649       -2.21514        1.65537
C          2.29449       -3.40913        0.86231
O          2.13221       -3.01141       -0.49963
C          1.60049       -3.96388       -1.46855
C          1.77585       -5.49329       -1.24089
N          0.41566       -5.53384       -0.66565
C          0.08158       -4.28159       -1.37416
C          2.05023       -3.50372       -2.85075
H          1.36455        1.03159        0.45297
H          0.31566        0.34576       -0.79713
H          1.89747       -0.37547       -0.46951
H         -0.47636       -0.28965        1.47577
H         -0.00418       -1.72223        0.56199
H          3.39799       -1.53674        1.05310
H          3.37868       -2.55359        2.51272
H          3.06674       -4.18379        0.89332
H          1.36095       -3.81635        1.25928
H          1.87550       -6.08641       -2.15859
H          2.56561       -5.80755       -0.55434
H         -0.14541       -6.34244       -0.93090
H         -0.51842       -3.58188       -0.78671
H         -0.41865       -4.44115       -2.33702
H          1.70208       -2.48523       -3.05329
H          3.14346       -3.50717       -2.92050
H          1.66396       -4.15253       -3.64427

--Link1--
%chk=JID_3940.chk
%mem=8GB
%nprocshared=4
# B3LYP/6-311++G(d,p) empiricaldispersion=gd3bj scf=xqc pop=npa geom=check

CID_83066749_JID_3940_Energie_neutraal

0 1

--Link1--
%chk=JID_3940.chk
%mem=8GB
%nprocshared=4
# B3LYP/6-311++G(d,p) empiricaldispersion=gd3bj scf=xqc pop=npa geom=check

CID_83066749_JID_3940_Energie_kation

1 2

--Link1--
%chk=JID_3940.chk
%mem=8GB
%nprocshared=4
# B3LYP/6-311++G(d,p) empiricaldispersion=gd3bj scf=xqc pop=npa geom=check

CID_83066749_JID_3940_Energie_anion

-1 2
