%chk=JID_8421.chk
%mem=8GB
%nprocshared=4
# opt freq B3LYP/6-31G(d) empiricaldispersion=gd3bj scf=xqc

CID_154219608_JID_8421_neutraal

0 1
C          0.95849       -0.08420       -0.03445
C         -0.28909       -0.57246        0.71239
C         -1.23188        0.56325        1.08609
C         -1.98120        1.03802       -0.14368
O         -2.61262       -0.05624       -0.78604
C         -1.71484       -1.09953       -1.14165
O         -1.00945       -1.58831        0.00888
O         -0.76508       -0.87092       -2.18198
C         -1.05651       -0.06209       -3.22318
O         -2.15709        0.43475       -3.40734
N          0.10018        0.16287       -3.98343
C          1.14135       -0.86308       -3.96615
C          0.37447        1.41327       -4.64575
C         -0.54877        2.46855       -4.67620
C         -0.23307        3.70291       -5.26017
C          1.01875        3.91429       -5.82411
C          1.95319        2.88813       -5.81024
C          1.63296        1.65462       -5.23037
H          0.72622        0.56669       -0.88019
H          1.52976       -0.93452       -0.42105
H          1.60252        0.48888        0.64099
H          0.06165       -1.04507        1.63773
H         -1.96689        0.17233        1.80152
H         -0.70025        1.38921        1.56936
H         -1.32587        1.55943       -0.84838
H         -2.76156        1.74740        0.15046
H         -2.33444       -1.93641       -1.47935
H          1.50846       -1.04334       -4.98127
H          1.95414       -0.54638       -3.30555
H          0.75522       -1.82412       -3.61042
H         -1.54139        2.37996       -4.24704
H         -0.97342        4.49916       -5.26414
H          1.26472        4.87464       -6.26832
H          2.93907        3.04380       -6.24089
H          2.41741        0.90448       -5.23221

--Link1--
%chk=JID_8421.chk
%mem=8GB
%nprocshared=4
# B3LYP/6-311++G(d,p) empiricaldispersion=gd3bj scf=xqc pop=npa geom=check

CID_154219608_JID_8421_Energie_neutraal

0 1

--Link1--
%chk=JID_8421.chk
%mem=8GB
%nprocshared=4
# B3LYP/6-311++G(d,p) empiricaldispersion=gd3bj scf=xqc pop=npa geom=check

CID_154219608_JID_8421_Energie_kation

1 2

--Link1--
%chk=JID_8421.chk
%mem=8GB
%nprocshared=4
# B3LYP/6-311++G(d,p) empiricaldispersion=gd3bj scf=xqc pop=npa geom=check

CID_154219608_JID_8421_Energie_anion

-1 2
