%chk=JID_2458.chk
%mem=8GB
%nprocshared=4
# opt freq B3LYP/6-31G(d) empiricaldispersion=gd3bj scf=xqc

CID_62740987_JID_2458_neutraal

0 1
C          0.95318       -0.03864       -0.07947
C          1.16453       -1.04320        1.04071
C          1.58294       -0.43203        2.38430
C          0.59615        0.48309        3.17301
C          0.52481        1.93111        2.59726
C          1.04725        2.82313        3.74290
C          2.55914        2.59816        3.91577
C          2.62321        1.23572        4.61727
C          1.14836        0.78680        4.62640
C          0.47759        2.12510        4.97114
C         -0.80640       -0.18446        3.33498
N         -1.61695       -0.26744        2.12529
H          0.09628        0.61212        0.10859
H          0.76526       -0.56424       -1.02148
H          1.84088        0.58670       -0.21766
H          0.28334       -1.68101        1.15417
H          1.96976       -1.71998        0.72525
H          1.84928       -1.27209        3.04073
H          2.51678        0.11132        2.19640
H          1.13076        2.07005        1.69752
H         -0.50221        2.22471        2.35734
H          0.77516        3.87450        3.62941
H          3.09314        2.59675        2.96031
H          3.00183        3.37104        4.55382
H          3.30984        0.53777        4.13392
H          2.98122        1.36805        5.64615
H          0.95626       -0.01511        5.34421
H          0.83215        2.55550        5.91444
H         -0.61480        2.10137        4.98459
H         -0.66597       -1.20152        3.72159
H         -1.40577        0.33935        4.08600
H         -2.50042       -0.72743        2.34149
H         -1.85795        0.66650        1.79939

--Link1--
%chk=JID_2458.chk
%mem=8GB
%nprocshared=4
# B3LYP/6-311++G(d,p) empiricaldispersion=gd3bj scf=xqc pop=npa geom=check

CID_62740987_JID_2458_Energie_neutraal

0 1

--Link1--
%chk=JID_2458.chk
%mem=8GB
%nprocshared=4
# B3LYP/6-311++G(d,p) empiricaldispersion=gd3bj scf=xqc pop=npa geom=check

CID_62740987_JID_2458_Energie_kation

1 2

--Link1--
%chk=JID_2458.chk
%mem=8GB
%nprocshared=4
# B3LYP/6-311++G(d,p) empiricaldispersion=gd3bj scf=xqc pop=npa geom=check

CID_62740987_JID_2458_Energie_anion

-1 2
