%chk=JID_8876.chk
%mem=8GB
%nprocshared=4
# opt freq B3LYP/6-31G(d) empiricaldispersion=gd3bj scf=xqc

CID_89512368_JID_8876_neutraal

0 1
C          0.93539        0.01425       -0.07498
C          0.14448        0.59388       -1.24817
C          0.39498       -0.18008       -2.54589
N         -1.29729        0.75477       -0.93336
C         -1.81509        2.14793       -0.98285
C         -2.70136        2.40332       -2.20137
C         -2.45908        2.63140        0.31727
C         -2.05129       -0.40108       -0.74104
O         -1.59910       -1.54292       -0.81078
C         -3.49040       -0.25612       -0.43186
C         -4.39808       -0.81186       -1.24430
C          4.77786        1.26172       -0.65998
N          4.39855        1.52192       -2.03958
C          5.10145        0.73783       -3.04565
C          3.41531        2.46521       -2.29038
O          2.75034        3.00189       -1.40644
C          3.18357        2.83512       -3.71261
C          1.97996        3.26575       -4.11237
H          0.64406       -1.01410        0.15725
H          0.78042        0.61541        0.82743
H          2.00656        0.00957       -0.29807
H          0.55799        1.59180       -1.41989
H          0.14929       -1.24191       -2.45752
H         -0.19994        0.23527       -3.36611
H          1.45112       -0.11701       -2.82954
H         -0.94544        2.80416       -1.11010
H         -3.65535        1.87435       -2.14389
H         -2.92489        3.47172       -2.29370
H         -2.19709        2.08491       -3.12005
H         -1.90657        2.27205        1.19144
H         -2.46007        3.72715        0.34798
H         -3.50326        2.32533        0.41144
H         -3.76529        0.22435        0.49442
H         -5.45615       -0.76135       -1.01359
H         -4.09877       -1.33856       -2.14616
H          4.54346        0.22007       -0.42108
H          4.25472        1.91155        0.04609
H          5.85472        1.42431       -0.55517
H          5.16184       -0.30211       -2.70974
H          4.59502        0.74710       -4.01211
H          6.11147        1.14237       -3.15665
H          4.01554        2.79753       -4.40193
H          1.80882        3.56391       -5.14078
H          1.14463        3.33528       -3.42112

--Link1--
%chk=JID_8876.chk
%mem=8GB
%nprocshared=4
# B3LYP/6-311++G(d,p) empiricaldispersion=gd3bj scf=xqc pop=npa geom=check

CID_89512368_JID_8876_Energie_neutraal

0 1

--Link1--
%chk=JID_8876.chk
%mem=8GB
%nprocshared=4
# B3LYP/6-311++G(d,p) empiricaldispersion=gd3bj scf=xqc pop=npa geom=check

CID_89512368_JID_8876_Energie_kation

1 2

--Link1--
%chk=JID_8876.chk
%mem=8GB
%nprocshared=4
# B3LYP/6-311++G(d,p) empiricaldispersion=gd3bj scf=xqc pop=npa geom=check

CID_89512368_JID_8876_Energie_anion

-1 2
