%chk=JID_259.chk
%mem=8GB
%nprocshared=4
# opt freq B3LYP/6-31G(d) empiricaldispersion=gd3bj scf=xqc

CID_145778341_JID_259_neutraal

0 1
C          0.93830        0.04699        0.06313
C          0.28338        0.97101       -0.95144
C          0.69956        0.69059       -2.39680
C          0.41654       -0.72055       -2.94244
C         -1.05960       -1.04586       -3.11651
C         -1.66078       -1.23781       -4.30556
O         -1.71521       -1.29753       -1.91348
C         -3.01227       -0.89503       -1.69555
C         -3.58925        0.23442       -2.12150
O          1.10997       -0.83949       -4.19370
H          0.58845       -0.98341       -0.04684
H          0.69283        0.37177        1.07942
H          2.02776        0.05720       -0.04148
H         -0.80374        0.92481       -0.84400
H          0.56668        2.00319       -0.71065
H          0.21647        1.43157       -3.04829
H          1.77582        0.88994       -2.49259
H          0.86538       -1.47537       -2.28847
H         -2.69661       -1.55377       -4.36973
H         -1.13197       -1.12481       -5.24469
H         -3.51347       -1.60765       -1.05156
H         -4.61638        0.46098       -1.85710
H         -3.05318        0.95615       -2.72735
H          0.85205       -0.07486       -4.73474

--Link1--
%chk=JID_259.chk
%mem=8GB
%nprocshared=4
# B3LYP/6-311++G(d,p) empiricaldispersion=gd3bj scf=xqc pop=npa geom=check

CID_145778341_JID_259_Energie_neutraal

0 1

--Link1--
%chk=JID_259.chk
%mem=8GB
%nprocshared=4
# B3LYP/6-311++G(d,p) empiricaldispersion=gd3bj scf=xqc pop=npa geom=check

CID_145778341_JID_259_Energie_kation

1 2

--Link1--
%chk=JID_259.chk
%mem=8GB
%nprocshared=4
# B3LYP/6-311++G(d,p) empiricaldispersion=gd3bj scf=xqc pop=npa geom=check

CID_145778341_JID_259_Energie_anion

-1 2
