%chk=JID_8202.chk
%mem=8GB
%nprocshared=4
# opt freq B3LYP/6-31G(d) empiricaldispersion=gd3bj scf=xqc

CID_66354943_JID_8202_neutraal

0 1
C          1.05845       -0.00831        0.08071
C          1.32797       -1.24669       -0.76279
N          1.41525       -2.46585        0.04582
C          0.19120       -3.19750        0.27114
C         -0.72742       -3.59858       -0.85925
C          0.04368       -4.64566       -0.12404
C          2.60621       -2.69264        0.74622
O          3.59406       -1.96563        0.59204
C          2.68684       -3.88274        1.69203
S          1.76703       -3.62468        3.24509
C          2.78951       -2.38467        4.01159
C          3.74384       -2.75141        4.96230
C          4.52402       -1.77564        5.58445
C          4.35664       -0.43006        5.25440
C          3.40899       -0.04641        4.29725
C          2.61220       -1.03405        3.69935
C          3.22171        1.40291        3.93589
N          2.26286        2.04742        4.82312
H          0.14976       -0.12855        0.67924
H          0.93261        0.86746       -0.56343
H          1.88827        0.19536        0.76328
H          0.53898       -1.35773       -1.51257
H          2.26851       -1.11699       -1.31061
H         -0.31497       -2.87678        1.18038
H         -1.79590       -3.53858       -0.68575
H         -0.43566       -3.40330       -1.88410
H          0.84992       -5.13129       -0.66131
H         -0.49655       -5.29859        0.55204
H          2.32288       -4.78396        1.19485
H          3.74102       -4.07075        1.92559
H          3.88164       -3.79481        5.23365
H          5.25983       -2.06269        6.33095
H          4.96337        0.32386        5.75152
H          1.85258       -0.74216        2.97959
H          4.18251        1.92738        3.98994
H          2.88146        1.48652        2.89691
H          2.06457        2.98261        4.47471
H          1.38417        1.53324        4.78860

--Link1--
%chk=JID_8202.chk
%mem=8GB
%nprocshared=4
# B3LYP/6-311++G(d,p) empiricaldispersion=gd3bj scf=xqc pop=npa geom=check

CID_66354943_JID_8202_Energie_neutraal

0 1

--Link1--
%chk=JID_8202.chk
%mem=8GB
%nprocshared=4
# B3LYP/6-311++G(d,p) empiricaldispersion=gd3bj scf=xqc pop=npa geom=check

CID_66354943_JID_8202_Energie_kation

1 2

--Link1--
%chk=JID_8202.chk
%mem=8GB
%nprocshared=4
# B3LYP/6-311++G(d,p) empiricaldispersion=gd3bj scf=xqc pop=npa geom=check

CID_66354943_JID_8202_Energie_anion

-1 2
