%chk=JID_10330.chk
%mem=8GB
%nprocshared=4
# opt freq B3LYP/6-31G(d) empiricaldispersion=gd3bj scf=xqc

CID_106621809_JID_10330_neutraal

0 1
C          1.03828        0.06858       -0.06189
O          0.25652        0.91411        0.77235
C          0.91885        1.57697        1.76898
C          0.10416        2.33816        2.60993
C          0.65306        3.05883        3.67343
C          2.03315        3.03260        3.90903
C          2.84757        2.27367        3.05734
C          2.29473        1.55104        1.99460
C          2.63425        3.79551        5.07107
N          2.48820        5.25309        4.96395
C          2.72445        5.95008        6.24739
C          4.14455        5.85116        6.89101
C          4.27542        4.63712        7.83102
C          5.65315        4.58093        8.48822
C          5.97913        5.90214        9.17205
C          5.77986        7.07624        8.21986
N          4.42748        7.08301        7.66113
C          3.25876        5.83697        3.84586
C          2.59360        6.01179        2.50570
C          2.91621        7.21402        3.33747
H          0.36341       -0.41013       -0.77807
H          1.52256       -0.72355        0.51888
H          1.77195        0.64720       -0.63278
H         -0.96842        2.37069        2.43629
H          0.00262        3.65125        4.31318
H          3.92321        2.24070        3.21366
H          2.96758        0.98126        1.36323
H          2.12900        3.43063        5.97502
H          3.69294        3.52584        5.16607
H          2.48132        7.00793        6.07995
H          1.97063        5.61572        6.97307
H          4.89343        5.77569        6.09302
H          4.11603        3.69752        7.29763
H          3.50661        4.68733        8.61353
H          5.68781        3.76331        9.21672
H          6.41167        4.36504        7.72570
H          5.33414        6.02703       10.05102
H          7.01334        5.88708        9.53384
H          5.94204        8.01183        8.76600
H          6.52248        7.04417        7.41320
H          4.32981        7.89029        7.04401
H          4.31373        5.56926        3.82079
H          3.18731        5.82344        1.61971
H          1.55027        5.73594        2.40396
H          2.08391        7.74580        3.78345
H          3.72995        7.85173        3.01460

--Link1--
%chk=JID_10330.chk
%mem=8GB
%nprocshared=4
# B3LYP/6-311++G(d,p) empiricaldispersion=gd3bj scf=xqc pop=npa geom=check

CID_106621809_JID_10330_Energie_neutraal

0 1

--Link1--
%chk=JID_10330.chk
%mem=8GB
%nprocshared=4
# B3LYP/6-311++G(d,p) empiricaldispersion=gd3bj scf=xqc pop=npa geom=check

CID_106621809_JID_10330_Energie_kation

1 2

--Link1--
%chk=JID_10330.chk
%mem=8GB
%nprocshared=4
# B3LYP/6-311++G(d,p) empiricaldispersion=gd3bj scf=xqc pop=npa geom=check

CID_106621809_JID_10330_Energie_anion

-1 2
