%chk=JID_6585.chk
%mem=8GB
%nprocshared=4
# opt freq B3LYP/6-31G(d) empiricaldispersion=gd3bj scf=xqc

CID_65389280_JID_6585_neutraal

0 1
C          1.03108       -0.07947        0.05214
C          0.58892        1.30496       -0.31051
C         -0.49202        1.49835       -1.14330
C         -0.82783        2.80368       -1.41859
N         -0.16973        3.84785       -0.90585
C          0.87257        3.57507       -0.09760
N          1.28332        2.33264        0.21301
C          1.62541        4.76029        0.47718
C          3.04834        4.87197       -0.08868
C          4.06053        3.94198        0.58425
C          4.06416        4.04096        2.12485
C          2.63144        3.86508        2.67208
C          1.60218        4.78675        2.01271
C          4.65309        5.39104        2.57858
C          4.95613        2.92087        2.69379
N         -1.91914        3.09589       -2.23639
H          1.30252       -0.63859       -0.84870
H          0.22848       -0.60809        0.57575
H          1.90551       -0.04950        0.71042
H         -1.05609        0.67054       -1.55023
H          1.08015        5.65357        0.14006
H          3.39119        5.90697        0.03437
H          3.04720        4.68238       -1.16954
H          5.06089        4.16674        0.19206
H          3.84988        2.90877        0.28203
H          2.31297        2.82381        2.54127
H          2.61992        4.04223        3.75543
H          1.79599        5.81474        2.34411
H          0.60114        4.53474        2.38496
H          4.07178        6.24409        2.21703
H          4.68436        5.45716        3.67219
H          5.67836        5.51459        2.21135
H          4.98488        2.95540        3.78873
H          4.58585        1.93134        2.40258
H          5.98546        3.01064        2.32865
H         -1.84391        2.63902       -3.13768
H         -1.95616        4.10824       -2.33088

--Link1--
%chk=JID_6585.chk
%mem=8GB
%nprocshared=4
# B3LYP/6-311++G(d,p) empiricaldispersion=gd3bj scf=xqc pop=npa geom=check

CID_65389280_JID_6585_Energie_neutraal

0 1

--Link1--
%chk=JID_6585.chk
%mem=8GB
%nprocshared=4
# B3LYP/6-311++G(d,p) empiricaldispersion=gd3bj scf=xqc pop=npa geom=check

CID_65389280_JID_6585_Energie_kation

1 2

--Link1--
%chk=JID_6585.chk
%mem=8GB
%nprocshared=4
# B3LYP/6-311++G(d,p) empiricaldispersion=gd3bj scf=xqc pop=npa geom=check

CID_65389280_JID_6585_Energie_anion

-1 2
