%chk=JID_4861.chk
%mem=8GB
%nprocshared=4
# opt freq B3LYP/6-31G(d) empiricaldispersion=gd3bj scf=xqc

CID_1540269_JID_4861_neutraal

0 1
C          0.94116       -0.07932       -0.01570
C          0.73160       -1.12521        1.06932
C          1.09538       -0.61719        2.42943
N          1.13223        0.64904        2.79752
C          1.48418        0.64906        4.12134
C          1.66597        1.73376        4.99197
C          2.03195        1.48132        6.31876
C          2.21292        0.17349        6.76990
C          2.03464       -0.92171        5.91573
C          1.66840       -0.64782        4.59075
N          1.40786       -1.43960        3.49366
C          1.48085       -2.88876        3.45843
O          0.21591       -3.44749        3.10293
C         -0.71625       -3.42438        4.17753
H          0.31487        0.80298        0.15482
H          0.68091       -0.49280       -0.99530
H          1.98545        0.24938       -0.05135
H         -0.31985       -1.43434        1.07469
H          1.33338       -2.00497        0.81741
H          1.52277        2.74609        4.63108
H          2.17595        2.31517        7.00149
H          2.49809        0.00160        7.80597
H          2.17751       -1.93241        6.28115
H          2.21290       -3.15859        2.69065
H          1.83116       -3.28294        4.41681
H         -0.32290       -3.97075        5.04019
H         -0.96332       -2.39726        4.46062
H         -1.63301       -3.91792        3.84357

--Link1--
%chk=JID_4861.chk
%mem=8GB
%nprocshared=4
# B3LYP/6-311++G(d,p) empiricaldispersion=gd3bj scf=xqc pop=npa geom=check

CID_1540269_JID_4861_Energie_neutraal

0 1

--Link1--
%chk=JID_4861.chk
%mem=8GB
%nprocshared=4
# B3LYP/6-311++G(d,p) empiricaldispersion=gd3bj scf=xqc pop=npa geom=check

CID_1540269_JID_4861_Energie_kation

1 2

--Link1--
%chk=JID_4861.chk
%mem=8GB
%nprocshared=4
# B3LYP/6-311++G(d,p) empiricaldispersion=gd3bj scf=xqc pop=npa geom=check

CID_1540269_JID_4861_Energie_anion

-1 2
