%chk=JID_3234.chk
%mem=8GB
%nprocshared=4
# opt freq B3LYP/6-31G(d) empiricaldispersion=gd3bj scf=xqc

CID_108408893_JID_3234_neutraal

0 1
C          1.09425        0.00485        0.03308
C          0.72914       -1.33886        0.60661
C         -0.19133       -1.38359        1.66366
C         -0.57383       -2.59343        2.25465
C         -0.03131       -3.79786        1.76646
C         -0.40328       -5.12101        2.40404
C         -0.02796       -6.32819        1.54488
N          1.36071       -6.22628        1.10849
C          1.51311       -5.07958        0.20579
C          0.91883       -3.77519        0.71543
C          1.26880       -2.54190        0.10252
C          2.26053       -2.51154       -1.03669
C         -1.56336       -2.57070        3.38784
H          0.70854        0.82435        0.64919
H          0.67176        0.11456       -0.97061
H          2.18190        0.12262       -0.00859
H         -0.61399       -0.45313        2.03973
H         -1.48288       -5.16203        2.58770
H          0.10846       -5.18845        3.37257
H         -0.69658       -6.41234        0.67847
H         -0.15688       -7.24191        2.13565
H          1.62644       -7.07157        0.60750
H          2.58896       -4.94999        0.04558
H          1.05079       -5.31665       -0.76064
H          2.12919       -1.63318       -1.67505
H          3.28086       -2.50802       -0.64106
H          2.13400       -3.37292       -1.69977
H         -2.51330       -3.01049        3.06830
H         -1.17484       -3.12282        4.24952
H         -1.76524       -1.54849        3.72560

--Link1--
%chk=JID_3234.chk
%mem=8GB
%nprocshared=4
# B3LYP/6-311++G(d,p) empiricaldispersion=gd3bj scf=xqc pop=npa geom=check

CID_108408893_JID_3234_Energie_neutraal

0 1

--Link1--
%chk=JID_3234.chk
%mem=8GB
%nprocshared=4
# B3LYP/6-311++G(d,p) empiricaldispersion=gd3bj scf=xqc pop=npa geom=check

CID_108408893_JID_3234_Energie_kation

1 2

--Link1--
%chk=JID_3234.chk
%mem=8GB
%nprocshared=4
# B3LYP/6-311++G(d,p) empiricaldispersion=gd3bj scf=xqc pop=npa geom=check

CID_108408893_JID_3234_Energie_anion

-1 2
