%chk=JID_5850.chk
%mem=8GB
%nprocshared=4
# opt freq B3LYP/6-31G(d) empiricaldispersion=gd3bj scf=xqc

CID_136902109_JID_5850_neutraal

0 1
C          0.93361       -0.06252        0.04103
C          0.62571       -1.39445       -0.64047
C          1.81791       -2.01741       -1.36092
C          2.82086       -2.76779       -0.49116
S          1.99393       -4.06643        0.45366
C          0.64191       -3.16996        1.12476
N          0.35718       -3.48762        2.33146
C         -0.78039       -2.90094        3.02507
C         -0.60903       -1.46252        3.35540
C         -1.48916       -0.41347        3.48442
C         -0.67206        0.68037        3.81631
N          0.61675        0.34259        3.88115
O          0.65412       -1.01665        3.60580
N         -0.01737       -2.30140        0.29744
C          3.67349       -1.89857        0.42616
H          1.53103       -0.17901        0.94647
H          0.00245        0.43046        0.34394
H          1.46047        0.61540       -0.63806
H         -0.11804       -1.16754       -1.41571
H          1.42587       -2.72494       -2.10657
H          2.34091       -1.24757       -1.94285
H          3.51378       -3.27826       -1.17145
H         -1.69991       -3.05333        2.44656
H         -0.92264       -3.45061        3.96285
H         -2.56150       -0.43831        3.36527
H         -0.95274        1.70550        4.01291
H         -0.81805       -1.86497        0.73488
H          4.52631       -2.47073        0.81060
H          4.08091       -1.04185       -0.12110
H          3.12629       -1.52164        1.29391

--Link1--
%chk=JID_5850.chk
%mem=8GB
%nprocshared=4
# B3LYP/6-311++G(d,p) empiricaldispersion=gd3bj scf=xqc pop=npa geom=check

CID_136902109_JID_5850_Energie_neutraal

0 1

--Link1--
%chk=JID_5850.chk
%mem=8GB
%nprocshared=4
# B3LYP/6-311++G(d,p) empiricaldispersion=gd3bj scf=xqc pop=npa geom=check

CID_136902109_JID_5850_Energie_kation

1 2

--Link1--
%chk=JID_5850.chk
%mem=8GB
%nprocshared=4
# B3LYP/6-311++G(d,p) empiricaldispersion=gd3bj scf=xqc pop=npa geom=check

CID_136902109_JID_5850_Energie_anion

-1 2
