%chk=JID_9129.chk
%mem=8GB
%nprocshared=4
# opt freq B3LYP/6-31G(d) empiricaldispersion=gd3bj scf=xqc

CID_64627364_JID_9129_neutraal

0 1
C          2.91400       -0.01100        0.00300
C          1.41683       -0.00249       -0.06285
C          0.70421       -1.20904       -0.06027
C         -0.69747       -1.24862       -0.20239
C         -1.39259       -0.01678       -0.29858
C         -0.67081        1.18947       -0.29411
C          0.71913        1.19573       -0.19539
C         -2.89552        0.06061       -0.37332
C         -1.44076       -2.58970       -0.28221
C         -1.83117       -2.94015       -1.75283
S         -0.77010       -4.12279       -2.68743
C          0.68033       -3.10926       -3.12442
C          0.51611       -2.25920       -4.38418
C         -0.28970       -0.97059       -4.20742
C          0.25460        0.01522       -5.24351
C          1.48096       -0.64539       -5.86150
C          1.86836       -1.73548       -4.87740
N         -0.72651       -3.68269        0.41453
C         -1.64298       -4.69208        0.93137
H          3.27128       -0.82550        0.64188
H          3.33145       -0.13774       -1.00074
H          3.29437        0.92415        0.42730
H          1.26069       -2.13890        0.04334
H         -1.19116        2.14197       -0.37016
H          1.25001        2.14462       -0.21112
H         -3.27705       -0.50538       -1.22696
H         -3.33938       -0.32285        0.55082
H         -3.23940        1.09347       -0.49613
H         -2.37371       -2.42152        0.27180
H         -2.80176       -3.44982       -1.70937
H         -1.99218       -2.04956       -2.36214
H          1.00439       -2.51059       -2.27644
H          1.48489       -3.83266       -3.30283
H          0.06783       -2.85963       -5.18780
H         -1.36131       -1.13767       -4.35178
H         -0.14774       -0.55029       -3.20613
H          0.52555        0.95882       -4.75635
H         -0.49202        0.24636       -6.01036
H          2.29362        0.06641       -6.03405
H          1.21482       -1.09054       -6.82758
H          2.45050       -1.30946       -4.05070
H          2.46919       -2.51841       -5.35048
H         -0.11734       -4.13161       -0.27362
H         -2.25043       -5.14104        0.13958
H         -1.06759       -5.49303        1.40606
H         -2.30476       -4.26986        1.69443

--Link1--
%chk=JID_9129.chk
%mem=8GB
%nprocshared=4
# B3LYP/6-311++G(d,p) empiricaldispersion=gd3bj scf=xqc pop=npa geom=check

CID_64627364_JID_9129_Energie_neutraal

0 1

--Link1--
%chk=JID_9129.chk
%mem=8GB
%nprocshared=4
# B3LYP/6-311++G(d,p) empiricaldispersion=gd3bj scf=xqc pop=npa geom=check

CID_64627364_JID_9129_Energie_kation

1 2

--Link1--
%chk=JID_9129.chk
%mem=8GB
%nprocshared=4
# B3LYP/6-311++G(d,p) empiricaldispersion=gd3bj scf=xqc pop=npa geom=check

CID_64627364_JID_9129_Energie_anion

-1 2
