%chk=JID_9984.chk
%mem=8GB
%nprocshared=4
# opt freq B3LYP/6-31G(d) empiricaldispersion=gd3bj scf=xqc

CID_106997123_JID_9984_neutraal

0 1
C          2.49200        0.00400       -0.01400
C          1.00931        0.07548        0.22317
C          0.21278       -1.04363        0.53355
C         -1.16185       -0.89388        0.76995
C         -1.75536        0.36597        0.69584
C         -0.98749        1.49515        0.39153
C          0.38930        1.33894        0.16686
C         -1.63658        2.85220        0.28671
N         -2.53630        2.91979       -0.85794
S          0.87179       -2.70091        0.58276
O         -0.09189       -3.56005        1.23812
O          1.37594       -2.99928       -0.73899
N          2.20971       -2.55752        1.59091
C          2.12005       -3.08893        2.96720
C          2.36786       -4.60200        2.95427
O          3.53381       -4.85118        2.15629
C          3.91000       -6.22876        2.07694
C          2.89012       -7.05765        1.30065
C          5.25913       -6.26714        1.36569
H          3.02522       -0.08784        0.93660
H          2.75743       -0.82502       -0.67437
H          2.85488        0.91256       -0.50814
H         -1.78689       -1.75667        0.99175
H         -2.82750        0.46599        0.85632
H          0.98942        2.21715       -0.06863
H         -2.19252        3.05938        1.20797
H         -0.87424        3.63410        0.19325
H         -2.85800        3.87797       -0.97607
H         -2.01504        2.68390       -1.70153
H          3.04420       -2.90618        1.10619
H          2.92024       -2.60292        3.53782
H          1.17282       -2.82646        3.44691
H          2.53002       -4.96433        3.97496
H          1.50599       -5.11870        2.52546
H          4.03308       -6.62947        3.08991
H          2.63259       -6.57562        0.35135
H          3.26912       -8.06415        1.09670
H          1.95970       -7.16735        1.86641
H          5.64244       -7.28911        1.28876
H          5.18113       -5.84532        0.35687
H          5.99361       -5.65812        1.90373

--Link1--
%chk=JID_9984.chk
%mem=8GB
%nprocshared=4
# B3LYP/6-311++G(d,p) empiricaldispersion=gd3bj scf=xqc pop=npa geom=check

CID_106997123_JID_9984_Energie_neutraal

0 1

--Link1--
%chk=JID_9984.chk
%mem=8GB
%nprocshared=4
# B3LYP/6-311++G(d,p) empiricaldispersion=gd3bj scf=xqc pop=npa geom=check

CID_106997123_JID_9984_Energie_kation

1 2

--Link1--
%chk=JID_9984.chk
%mem=8GB
%nprocshared=4
# B3LYP/6-311++G(d,p) empiricaldispersion=gd3bj scf=xqc pop=npa geom=check

CID_106997123_JID_9984_Energie_anion

-1 2
