%chk=JID_4573.chk
%mem=8GB
%nprocshared=4
# opt freq B3LYP/6-31G(d) empiricaldispersion=gd3bj scf=xqc

CID_148767697_JID_4573_neutraal

0 1
C          0.94460        0.07833        0.02820
O          0.20506       -0.96264       -0.59487
C          0.41613       -1.04951       -2.01253
C         -0.39964        0.02102       -2.74075
C         -0.21168       -0.07998       -4.25043
C         -0.27801       -1.48714       -4.75829
C         -0.22793       -2.58139       -3.97303
C         -0.02701       -2.46573       -2.47103
C          0.97996       -3.51080       -1.95940
C          0.57934       -4.92356       -2.36722
C          0.48991       -5.05900       -3.88484
C         -0.34963       -3.97088       -4.57190
O         -1.71837       -4.32349       -4.79646
C         -2.48733       -4.71852       -3.67665
H          0.78410        0.01006        1.10771
H          0.60050        1.06028       -0.30559
H          2.01470       -0.03586       -0.16925
H          1.48459       -0.91419       -2.23109
H         -0.11959        1.02659       -2.40911
H         -1.46129       -0.08964       -2.48200
H         -0.98248        0.52117       -4.74600
H          0.75840        0.34515       -4.53411
H         -0.40839       -1.60183       -5.83323
H         -0.98817       -2.68117       -1.98623
H          1.04747       -3.46540       -0.86585
H          1.98334       -3.29162       -2.34762
H         -0.37431       -5.18418       -1.89707
H          1.31879       -5.63703       -1.98491
H          0.11374       -6.05568       -4.14286
H          1.51419       -4.99798       -4.27740
H          0.05664       -3.91308       -5.59157
H         -2.12713       -5.66457       -3.26622
H         -2.51249       -3.94453       -2.90843
H         -3.51463       -4.87992       -4.01678

--Link1--
%chk=JID_4573.chk
%mem=8GB
%nprocshared=4
# B3LYP/6-311++G(d,p) empiricaldispersion=gd3bj scf=xqc pop=npa geom=check

CID_148767697_JID_4573_Energie_neutraal

0 1

--Link1--
%chk=JID_4573.chk
%mem=8GB
%nprocshared=4
# B3LYP/6-311++G(d,p) empiricaldispersion=gd3bj scf=xqc pop=npa geom=check

CID_148767697_JID_4573_Energie_kation

1 2

--Link1--
%chk=JID_4573.chk
%mem=8GB
%nprocshared=4
# B3LYP/6-311++G(d,p) empiricaldispersion=gd3bj scf=xqc pop=npa geom=check

CID_148767697_JID_4573_Energie_anion

-1 2
