%chk=JID_6351.chk
%mem=8GB
%nprocshared=4
# opt freq B3LYP/6-31G(d) empiricaldispersion=gd3bj scf=xqc

CID_123608128_JID_6351_neutraal

0 1
C          0.94777       -0.05505       -0.06513
C          0.99426        0.17009       -1.58291
C          1.27355       -1.18456       -2.26219
C         -0.40415        0.65897       -2.02165
C          2.06214        1.21245       -2.03821
O          1.78296        2.54272       -1.64042
O          3.42366        0.83664       -1.87167
C          4.14344        1.17931       -0.69615
C          3.75867        2.43727        0.09373
O          2.81297        2.52209        0.87730
C          4.44351       -0.06303        0.14518
C          4.40265       -0.07266        1.54945
C          4.70902       -1.23133        2.26968
C          5.07448       -2.39666        1.60224
C          5.14023       -2.40503        0.21279
C          4.83487       -1.24823       -0.50718
H          0.11763       -0.72001        0.20355
H          0.79559        0.87807        0.48396
H          1.85335       -0.53351        0.30467
H          0.50609       -1.92308       -2.00333
H          1.27984       -1.08503       -3.35348
H          2.24066       -1.59615       -1.95878
H         -0.68017        1.59162       -1.51732
H         -0.43985        0.83794       -3.10214
H         -1.17625       -0.08243       -1.78550
H          1.96347        1.25517       -3.13016
H          1.46531        2.51534       -0.71759
H          5.14102        1.44990       -1.07489
H          4.36318        3.33074       -0.14142
H          4.11716        0.81003        2.11720
H          4.65739       -1.22159        3.35575
H          5.30810       -3.29633        2.16507
H          5.42755       -3.31155       -0.31335
H          4.89394       -1.27635       -1.59440

--Link1--
%chk=JID_6351.chk
%mem=8GB
%nprocshared=4
# B3LYP/6-311++G(d,p) empiricaldispersion=gd3bj scf=xqc pop=npa geom=check

CID_123608128_JID_6351_Energie_neutraal

0 1

--Link1--
%chk=JID_6351.chk
%mem=8GB
%nprocshared=4
# B3LYP/6-311++G(d,p) empiricaldispersion=gd3bj scf=xqc pop=npa geom=check

CID_123608128_JID_6351_Energie_kation

1 2

--Link1--
%chk=JID_6351.chk
%mem=8GB
%nprocshared=4
# B3LYP/6-311++G(d,p) empiricaldispersion=gd3bj scf=xqc pop=npa geom=check

CID_123608128_JID_6351_Energie_anion

-1 2
