%chk=JID_5391.chk
%mem=8GB
%nprocshared=4
# opt freq B3LYP/6-31G(d) empiricaldispersion=gd3bj scf=xqc

CID_13343743_JID_5391_neutraal

0 1
C          0.95926       -0.08189        0.04043
C          0.23309       -0.97672        0.99841
O         -0.79383       -0.58064        1.55890
N          0.65571       -2.24220        1.26909
C          1.76824       -3.01427        0.88843
C          2.86023       -2.56411        0.14800
C          3.91528       -3.42979       -0.18137
C          3.91432       -4.74910        0.28526
C          2.81938       -5.21210        1.00977
C          1.76110       -4.35095        1.31338
O          4.91205       -5.66874        0.08908
C          6.22196       -5.09970        0.10165
C          6.60194       -4.57027       -1.27036
C          5.47444       -3.76921       -1.89804
O          4.90032       -2.86316       -0.95463
H          0.35260        0.81139       -0.14219
H          1.09898       -0.57982       -0.92172
H          1.90824        0.24276        0.47283
H         -0.00717       -2.69751        1.88766
H          2.94789       -1.54627       -0.20328
H          2.79714       -6.24122        1.35933
H          0.92854       -4.74648        1.89148
H          6.92051       -5.89523        0.38483
H          6.31290       -4.32804        0.87840
H          7.49916       -3.94917       -1.16765
H          6.85615       -5.39866       -1.94150
H          5.87655       -3.16984       -2.72271
H          4.70823       -4.41870       -2.34313

--Link1--
%chk=JID_5391.chk
%mem=8GB
%nprocshared=4
# B3LYP/6-311++G(d,p) empiricaldispersion=gd3bj scf=xqc pop=npa geom=check

CID_13343743_JID_5391_Energie_neutraal

0 1

--Link1--
%chk=JID_5391.chk
%mem=8GB
%nprocshared=4
# B3LYP/6-311++G(d,p) empiricaldispersion=gd3bj scf=xqc pop=npa geom=check

CID_13343743_JID_5391_Energie_kation

1 2

--Link1--
%chk=JID_5391.chk
%mem=8GB
%nprocshared=4
# B3LYP/6-311++G(d,p) empiricaldispersion=gd3bj scf=xqc pop=npa geom=check

CID_13343743_JID_5391_Energie_anion

-1 2
