%chk=JID_587.chk
%mem=8GB
%nprocshared=4
# opt freq B3LYP/6-31G(d) empiricaldispersion=gd3bj scf=xqc

CID_19437645_JID_587_neutraal

0 1
C          1.05459        0.05543        0.06283
C          0.13009        0.56199        1.16023
C          0.28620        2.06001        1.44151
C         -0.10300        3.03221        0.30280
N         -1.48493        3.50473        0.30441
C         -1.76587        4.57647       -0.66983
C         -1.19256        4.42936       -2.07831
C         -2.53222        2.48189        0.33977
C         -2.68289        1.60858       -0.89975
O          0.72771        4.17271        0.50007
H          0.78850        0.46946       -0.91351
H          0.98499       -1.03470       -0.01147
H          2.09684        0.31287        0.27614
H         -0.90051        0.29914        0.91405
H          0.36941        0.01903        2.08313
H         -0.28516        2.31397        2.34461
H          1.33393        2.23806        1.72297
H          0.17399        2.59962       -0.66208
H         -2.84895        4.73801       -0.74657
H         -1.38192        5.51682       -0.25367
H         -1.49015        3.49303       -2.55479
H         -1.55360        5.24930       -2.70857
H         -0.09954        4.48194       -2.07822
H         -2.39664        1.84570        1.22017
H         -3.49689        2.97193        0.52864
H         -1.73305        1.16924       -1.21567
H         -3.37523        0.78625       -0.68982
H         -3.10162        2.17473       -1.73658
H          0.25064        4.67880        1.17933

--Link1--
%chk=JID_587.chk
%mem=8GB
%nprocshared=4
# B3LYP/6-311++G(d,p) empiricaldispersion=gd3bj scf=xqc pop=npa geom=check

CID_19437645_JID_587_Energie_neutraal

0 1

--Link1--
%chk=JID_587.chk
%mem=8GB
%nprocshared=4
# B3LYP/6-311++G(d,p) empiricaldispersion=gd3bj scf=xqc pop=npa geom=check

CID_19437645_JID_587_Energie_kation

1 2

--Link1--
%chk=JID_587.chk
%mem=8GB
%nprocshared=4
# B3LYP/6-311++G(d,p) empiricaldispersion=gd3bj scf=xqc pop=npa geom=check

CID_19437645_JID_587_Energie_anion

-1 2
