%chk=JID_9050.chk
%mem=8GB
%nprocshared=4
# opt freq B3LYP/6-31G(d) empiricaldispersion=gd3bj scf=xqc

CID_82695349_JID_9050_neutraal

0 1
C          1.00643       -0.09969       -0.00463
C          0.72184        1.24848       -0.62839
C          1.25551        1.32202       -2.05108
N          0.80279        0.13940       -2.77964
C          1.00641        0.17769       -4.22423
C          2.51622        0.07755       -4.54841
C          0.31458       -1.06880       -4.84866
C         -1.15205       -1.31880       -4.46549
N         -2.10426       -0.48291       -5.16688
C         -2.65180       -0.66180       -6.41349
C         -3.43268        0.45786       -6.62419
C         -3.31829        1.23250       -5.44816
N         -2.55582        0.61541       -4.54116
C         -3.93555        2.56883       -5.19167
C         -3.69943        3.13505       -3.79913
C         -2.41108       -1.83189       -7.30663
C         -1.49396       -1.48358       -8.46870
C          0.49974        1.45691       -4.87019
N          0.07941        2.51813       -5.40607
H          0.37913       -0.89500       -0.41985
H          0.78593       -0.05983        1.06795
H          2.05895       -0.38239       -0.11166
H         -0.35959        1.43110       -0.61687
H          1.18756        2.03919       -0.02901
H          0.89251        2.25593       -2.49156
H          2.35031        1.36298       -2.02961
H          1.25623       -0.68898       -2.39854
H          2.97012       -0.80548       -4.08321
H          2.68108        0.00076       -5.63041
H          3.07038        0.95951       -4.20650
H          0.40659       -1.03030       -5.94139
H          0.87200       -1.96188       -4.53051
H         -1.41384       -2.35788       -4.69268
H         -1.32419       -1.20145       -3.38974
H         -4.00119        0.69297       -7.51273
H         -3.54405        3.27936       -5.93014
H         -5.01632        2.49519       -5.36310
H         -2.63086        3.26881       -3.59897
H         -4.18433        4.11174       -3.70201
H         -4.11040        2.47552       -3.02741
H         -1.98995       -2.67935       -6.75785
H         -3.37414       -2.17560       -7.70419
H         -0.51355       -1.14701       -8.11789
H         -1.34325       -2.36087       -9.10602
H         -1.92019       -0.68665       -9.08742

--Link1--
%chk=JID_9050.chk
%mem=8GB
%nprocshared=4
# B3LYP/6-311++G(d,p) empiricaldispersion=gd3bj scf=xqc pop=npa geom=check

CID_82695349_JID_9050_Energie_neutraal

0 1

--Link1--
%chk=JID_9050.chk
%mem=8GB
%nprocshared=4
# B3LYP/6-311++G(d,p) empiricaldispersion=gd3bj scf=xqc pop=npa geom=check

CID_82695349_JID_9050_Energie_kation

1 2

--Link1--
%chk=JID_9050.chk
%mem=8GB
%nprocshared=4
# B3LYP/6-311++G(d,p) empiricaldispersion=gd3bj scf=xqc pop=npa geom=check

CID_82695349_JID_9050_Energie_anion

-1 2
