%chk=JID_2624.chk
%mem=8GB
%nprocshared=4
# opt freq B3LYP/6-31G(d) empiricaldispersion=gd3bj scf=xqc

CID_80555752_JID_2624_neutraal

0 1
C          1.05003       -0.08650        0.00387
C         -0.25382       -0.08650        0.00387
C         -1.77382       -0.08650        0.00387
C         -2.31312       -1.51706       -0.16595
N         -1.99906       -2.35189        0.99636
C         -2.31271       -3.77244        0.82285
C         -1.52156       -4.53297       -0.27121
C         -1.91927       -6.02201       -0.29403
C         -1.29819       -6.80320        0.86410
C          0.20611       -6.56001        0.96533
N          0.51738       -5.13237        1.03952
C          0.00672       -4.42257       -0.13455
H          2.11568       -0.08285        0.00868
H         -2.13985        0.35962        0.93553
H         -2.12465        0.53789       -0.82543
H         -3.40089       -1.47202       -0.29087
H         -1.88655       -1.93636       -1.08334
H         -1.01388       -2.25611        1.24799
H         -2.14767       -4.24837        1.79590
H         -3.38760       -3.87336        0.62588
H         -1.80416       -4.11534       -1.24557
H         -3.00959       -6.13297       -0.27901
H         -1.57320       -6.46354       -1.23784
H         -1.78162       -6.52004        1.80662
H         -1.48752       -7.87392        0.72578
H          0.59060       -7.05401        1.86430
H          0.72044       -7.01231        0.10839
H          1.52922       -5.01348        1.08963
H          0.48449       -4.82352       -1.03830
H          0.31374       -3.37374       -0.07759

--Link1--
%chk=JID_2624.chk
%mem=8GB
%nprocshared=4
# B3LYP/6-311++G(d,p) empiricaldispersion=gd3bj scf=xqc pop=npa geom=check

CID_80555752_JID_2624_Energie_neutraal

0 1

--Link1--
%chk=JID_2624.chk
%mem=8GB
%nprocshared=4
# B3LYP/6-311++G(d,p) empiricaldispersion=gd3bj scf=xqc pop=npa geom=check

CID_80555752_JID_2624_Energie_kation

1 2

--Link1--
%chk=JID_2624.chk
%mem=8GB
%nprocshared=4
# B3LYP/6-311++G(d,p) empiricaldispersion=gd3bj scf=xqc pop=npa geom=check

CID_80555752_JID_2624_Energie_anion

-1 2
