%chk=JID_6773.chk
%mem=8GB
%nprocshared=4
# opt freq B3LYP/6-31G(d) empiricaldispersion=gd3bj scf=xqc

CID_58061799_JID_6773_neutraal

0 1
C          1.08437        0.04313        0.03196
C          0.59276        1.48301       -0.08302
C          1.17405        2.22245       -1.28206
O         -0.84678        1.59956       -0.03866
C         -1.61545        0.98285       -0.97620
O         -1.15922        0.26652       -1.85619
N         -2.97409        1.26447       -0.81462
C         -3.43558        1.89783        0.42865
C         -4.81309        2.55975        0.32324
C         -5.85277        1.67513       -0.36655
C         -5.27528        1.18678       -1.68506
C         -3.95917        0.42821       -1.49495
C         -3.70169       -0.04577       -2.92849
C         -5.09284       -0.40301       -3.47331
C         -6.10597        0.20467       -2.49746
O         -6.25663        0.60754        0.48290
H          0.92100       -0.52557       -0.88782
H          0.55754       -0.48049        0.83637
H          2.15845        0.01957        0.24319
H          0.93459        2.00764        0.81752
H          0.90071        1.74472       -2.22755
H          0.78894        3.24711       -1.32021
H          2.26632        2.26186       -1.22457
H         -2.71720        2.65617        0.75804
H         -3.45030        1.11606        1.19812
H         -5.15341        2.83405        1.32836
H         -4.70634        3.48840       -0.25208
H         -6.75295        2.26839       -0.56235
H         -5.08653        2.07452       -2.30971
H         -4.10081       -0.45983       -0.86292
H         -3.03494       -0.91256       -2.97189
H         -3.25754        0.75327       -3.53452
H         -5.22739       -1.48846       -3.53410
H         -5.22066        0.00204       -4.48285
H         -6.52911       -0.58361       -1.86419
H         -6.93292        0.69450       -3.02061
H         -5.47804        0.09615        0.75659

--Link1--
%chk=JID_6773.chk
%mem=8GB
%nprocshared=4
# B3LYP/6-311++G(d,p) empiricaldispersion=gd3bj scf=xqc pop=npa geom=check

CID_58061799_JID_6773_Energie_neutraal

0 1

--Link1--
%chk=JID_6773.chk
%mem=8GB
%nprocshared=4
# B3LYP/6-311++G(d,p) empiricaldispersion=gd3bj scf=xqc pop=npa geom=check

CID_58061799_JID_6773_Energie_kation

1 2

--Link1--
%chk=JID_6773.chk
%mem=8GB
%nprocshared=4
# B3LYP/6-311++G(d,p) empiricaldispersion=gd3bj scf=xqc pop=npa geom=check

CID_58061799_JID_6773_Energie_anion

-1 2
