%chk=JID_8455.chk
%mem=8GB
%nprocshared=4
# opt freq B3LYP/6-31G(d) empiricaldispersion=gd3bj scf=xqc

CID_6907928_JID_8455_neutraal

0 1
C          0.92594        0.03955       -0.05432
O          1.10382       -0.95818        0.95061
C          1.65160       -2.11190        0.45263
C          1.06792       -2.78850       -0.62484
C          1.63856       -3.96782       -1.10832
C          2.78686       -4.48353       -0.50890
C          3.34529       -3.83117        0.59540
C          2.78545       -2.64340        1.08075
O          3.36496       -2.04162        2.17050
C          3.96703       -0.79226        1.82930
C          4.58167       -4.34559        1.20757
N          5.46067       -4.98186        0.50003
N          6.59542       -5.30892        1.17095
C          7.79006       -5.59149        0.54633
O          8.80029       -5.84233        1.19813
C          7.85597       -5.59780       -0.94142
C          7.22276       -4.56503       -1.84407
C          8.70060       -4.53077       -1.61446
H          0.00020       -0.13603       -0.61102
H          1.78308        0.09451       -0.73541
H          0.83513        1.00678        0.44926
H          0.15841       -2.41504       -1.08687
H          1.18575       -4.48638       -1.95021
H          3.23635       -5.39603       -0.89462
H          4.36433       -0.78013        0.80733
H          3.25415        0.02461        1.97185
H          4.80390       -0.62882        2.51521
H          4.75332       -4.10514        2.27261
H          6.63282       -5.23860        2.18180
H          7.95202       -6.60084       -1.34516
H          6.86054       -4.90402       -2.80794
H          6.62880       -3.77002       -1.41031
H          9.09279       -3.72495       -1.00276
H          9.35515       -4.83533       -2.42123

--Link1--
%chk=JID_8455.chk
%mem=8GB
%nprocshared=4
# B3LYP/6-311++G(d,p) empiricaldispersion=gd3bj scf=xqc pop=npa geom=check

CID_6907928_JID_8455_Energie_neutraal

0 1

--Link1--
%chk=JID_8455.chk
%mem=8GB
%nprocshared=4
# B3LYP/6-311++G(d,p) empiricaldispersion=gd3bj scf=xqc pop=npa geom=check

CID_6907928_JID_8455_Energie_kation

1 2

--Link1--
%chk=JID_8455.chk
%mem=8GB
%nprocshared=4
# B3LYP/6-311++G(d,p) empiricaldispersion=gd3bj scf=xqc pop=npa geom=check

CID_6907928_JID_8455_Energie_anion

-1 2
