%chk=JID_10857.chk
%mem=8GB
%nprocshared=4
# opt freq B3LYP/6-31G(d) empiricaldispersion=gd3bj scf=xqc

CID_128909668_JID_10857_neutraal

0 1
C          0.99152       -0.09207        0.03810
N          0.91709        1.35468       -0.07390
C          2.12824        2.04027       -0.12753
O          3.22396        1.48024       -0.08274
C          2.06123        3.53932       -0.28846
C          0.83199        4.12918        0.36879
C         -0.43687        3.44932       -0.12620
C         -0.34420        1.93491        0.09134
O         -1.35574        1.27377        0.33704
N         -0.69179        3.72552       -1.53527
C         -1.79761        3.73464       -2.28454
O         -1.64300        3.74846       -3.50800
N         -3.04460        3.74048       -1.81188
C         -3.65205        3.90889       -0.48990
C         -3.48313        5.35464        0.00382
C         -4.55120        6.33729       -0.47561
C         -5.76714        6.38347        0.44838
C         -6.67473        5.15943        0.39340
C         -5.98046        3.81980        0.63445
C         -5.10157        3.39556       -0.53959
H          0.08553       -0.56243       -0.35575
H          1.09482       -0.35072        1.09680
H          1.85363       -0.48459       -0.50948
H          2.10320        3.77117       -1.35757
H          2.95398        3.97347        0.17650
H          0.79028        5.20731        0.17466
H          0.90976        3.99691        1.45596
H         -1.24911        3.83124        0.48757
H          0.09782        3.64390       -2.16345
H         -3.68755        3.79980       -2.59250
H         -3.11881        3.24808        0.19573
H         -3.45569        5.35587        1.10104
H         -2.50473        5.73697       -0.31327
H         -4.84879        6.13371       -1.51035
H         -4.10579        7.34053       -0.47378
H         -6.36891        7.26218        0.18400
H         -5.43707        6.54344        1.48249
H         -7.19231        5.13623       -0.57386
H         -7.45746        5.28506        1.15210
H         -6.76694        3.06360        0.75374
H         -5.41565        3.83025        1.57339
H         -5.58549        3.68529       -1.48166
H         -5.06104        2.29787       -0.56588

--Link1--
%chk=JID_10857.chk
%mem=8GB
%nprocshared=4
# B3LYP/6-311++G(d,p) empiricaldispersion=gd3bj scf=xqc pop=npa geom=check

CID_128909668_JID_10857_Energie_neutraal

0 1

--Link1--
%chk=JID_10857.chk
%mem=8GB
%nprocshared=4
# B3LYP/6-311++G(d,p) empiricaldispersion=gd3bj scf=xqc pop=npa geom=check

CID_128909668_JID_10857_Energie_kation

1 2

--Link1--
%chk=JID_10857.chk
%mem=8GB
%nprocshared=4
# B3LYP/6-311++G(d,p) empiricaldispersion=gd3bj scf=xqc pop=npa geom=check

CID_128909668_JID_10857_Energie_anion

-1 2
