%chk=JID_3529.chk
%mem=8GB
%nprocshared=4
# opt freq B3LYP/6-31G(d) empiricaldispersion=gd3bj scf=xqc

CID_103037555_JID_3529_neutraal

0 1
C          1.08124       -0.05794        0.00650
C          0.65351        1.08845       -0.90949
C          0.87705        0.77990       -2.41036
C          0.59501       -0.63001       -2.96680
C         -0.87686       -1.08740       -3.14659
C         -1.69236       -0.03209       -3.90615
C         -0.85992       -2.40106       -3.95214
O         -1.38607       -1.34929       -1.83424
C         -2.76595       -1.66150       -1.71801
C         -0.77153        1.61066       -0.62305
C         -1.05017        2.04214        0.82989
C         -0.13091        3.16482        1.30877
N         -2.44563        2.49109        0.92469
H          0.37567       -0.89211       -0.02351
H          1.15488        0.27496        1.04658
H          2.07049       -0.43299       -0.27703
H          1.33269        1.92491       -0.69397
H          0.37398        1.53533       -3.02532
H          1.94921        0.94961       -2.59124
H          1.07860       -0.66291       -3.95372
H          1.12847       -1.36551       -2.35166
H         -1.18693        0.27294       -4.82876
H         -2.67898       -0.41754       -4.18711
H         -1.87262        0.85695       -3.29473
H         -0.35700       -3.19581       -3.38952
H         -1.87236       -2.75915       -4.16553
H         -0.34924       -2.27704       -4.91329
H         -3.38736       -0.80831       -2.00224
H         -3.03211       -2.54238       -2.30634
H         -2.97038       -1.88508       -0.66693
H         -0.96479        2.46251       -1.29007
H         -1.50419        0.84672       -0.89161
H         -0.94011        1.18024        1.49646
H         -0.17512        4.03221        0.64083
H         -0.41075        3.49924        2.31435
H          0.90952        2.83043        1.36311
H         -2.64304        2.78866        1.87928
H         -2.58106        3.31357        0.33813

--Link1--
%chk=JID_3529.chk
%mem=8GB
%nprocshared=4
# B3LYP/6-311++G(d,p) empiricaldispersion=gd3bj scf=xqc pop=npa geom=check

CID_103037555_JID_3529_Energie_neutraal

0 1

--Link1--
%chk=JID_3529.chk
%mem=8GB
%nprocshared=4
# B3LYP/6-311++G(d,p) empiricaldispersion=gd3bj scf=xqc pop=npa geom=check

CID_103037555_JID_3529_Energie_kation

1 2

--Link1--
%chk=JID_3529.chk
%mem=8GB
%nprocshared=4
# B3LYP/6-311++G(d,p) empiricaldispersion=gd3bj scf=xqc pop=npa geom=check

CID_103037555_JID_3529_Energie_anion

-1 2
