%chk=JID_9831.chk
%mem=8GB
%nprocshared=4
# opt freq B3LYP/6-31G(d) empiricaldispersion=gd3bj scf=xqc

CID_110885255_JID_9831_neutraal

0 1
C          2.18000       -0.00100        0.04500
N          2.25899        0.53015       -1.29123
C          2.09767       -0.16255       -2.46905
N          2.35350        0.64983       -3.47611
N          2.63205        1.89358       -2.96508
C          2.56877        1.81242       -1.65906
S          2.79243        3.09975       -0.52989
C          3.67922        4.39254       -1.49061
C          5.03446        3.90485       -2.01765
C          5.77950        5.02301       -2.74673
C          4.92760        5.63991       -3.85193
C          3.59497        6.14558       -3.31197
C          2.81544        5.04409       -2.58916
O          1.64980        5.64628       -2.01921
C          1.71311       -1.53540       -2.61377
C          0.69648       -2.20905       -1.96253
C          0.60458       -3.57612       -2.36027
C          1.54655       -3.89912       -3.31027
S          2.52676       -2.56029       -3.72165
H          1.16717        0.16334        0.42071
H          2.41437       -1.06792        0.03679
H          2.91102        0.49540        0.68744
H          3.87806        5.16699       -0.73749
H          4.91121        3.06764       -2.71327
H          5.65808        3.54484       -1.19022
H          6.70794        4.62770       -3.17418
H          6.06504        5.80069       -2.02764
H          4.74649        4.89390       -4.63539
H          5.47374        6.46769       -4.31801
H          2.98754        6.54975       -4.13100
H          3.76564        6.98793       -2.62859
H          2.48267        4.31594       -3.33457
H          1.13933        4.92103       -1.61592
H          0.03176       -1.74737       -1.24270
H         -0.12216       -4.28274       -1.97788
H          1.70248       -4.85407       -3.79356

--Link1--
%chk=JID_9831.chk
%mem=8GB
%nprocshared=4
# B3LYP/6-311++G(d,p) empiricaldispersion=gd3bj scf=xqc pop=npa geom=check

CID_110885255_JID_9831_Energie_neutraal

0 1

--Link1--
%chk=JID_9831.chk
%mem=8GB
%nprocshared=4
# B3LYP/6-311++G(d,p) empiricaldispersion=gd3bj scf=xqc pop=npa geom=check

CID_110885255_JID_9831_Energie_kation

1 2

--Link1--
%chk=JID_9831.chk
%mem=8GB
%nprocshared=4
# B3LYP/6-311++G(d,p) empiricaldispersion=gd3bj scf=xqc pop=npa geom=check

CID_110885255_JID_9831_Energie_anion

-1 2
