%chk=JID_8742.chk
%mem=8GB
%nprocshared=4
# opt freq B3LYP/6-31G(d) empiricaldispersion=gd3bj scf=xqc

CID_83043783_JID_8742_neutraal

0 1
C          0.96495        0.07094       -0.06115
C          0.63668       -0.18757        1.40258
C          1.13293        0.92027        2.34255
C          0.48422        2.30121        2.10217
C         -0.96651        2.21447        2.52186
O         -1.38747        2.20138        3.66791
O         -1.81169        2.12192        1.47695
C          1.16299        3.47138        2.88140
C          2.61221        3.67815        2.40145
C          0.45502        4.82987        2.75201
C          0.51530        5.76229        3.80167
C         -0.08818        7.01840        3.68832
C         -0.76538        7.38114        2.52544
C         -0.82293        6.47632        1.46873
C         -0.21047        5.22003        1.57719
O         -1.30880        8.63536        2.54322
C         -2.04787        9.03151        1.39501
O          1.25603        3.10570        4.26759
H          0.38573        0.90653       -0.46376
H          0.72239       -0.81308       -0.65989
H          2.02939        0.28778       -0.19479
H         -0.44224       -0.33807        1.51714
H          1.11446       -1.12841        1.70232
H          0.94663        0.59565        3.37444
H          2.21951        0.98311        2.22839
H          0.52500        2.53668        1.03348
H         -2.69916        2.06409        1.89111
H          2.65857        3.87457        1.32475
H          3.08401        4.52361        2.91790
H          3.24475        2.81422        2.62803
H          1.05075        5.52387        4.71951
H         -0.02203        7.72129        4.51526
H         -1.32707        6.71651        0.53854
H         -0.26305        4.56202        0.71317
H         -1.41018        9.06328        0.50537
H         -2.91304        8.37861        1.23863
H         -2.42238       10.04443        1.57131
H          0.33896        3.01021        4.59698

--Link1--
%chk=JID_8742.chk
%mem=8GB
%nprocshared=4
# B3LYP/6-311++G(d,p) empiricaldispersion=gd3bj scf=xqc pop=npa geom=check

CID_83043783_JID_8742_Energie_neutraal

0 1

--Link1--
%chk=JID_8742.chk
%mem=8GB
%nprocshared=4
# B3LYP/6-311++G(d,p) empiricaldispersion=gd3bj scf=xqc pop=npa geom=check

CID_83043783_JID_8742_Energie_kation

1 2

--Link1--
%chk=JID_8742.chk
%mem=8GB
%nprocshared=4
# B3LYP/6-311++G(d,p) empiricaldispersion=gd3bj scf=xqc pop=npa geom=check

CID_83043783_JID_8742_Energie_anion

-1 2
