%chk=JID_5921.chk
%mem=8GB
%nprocshared=4
# opt freq B3LYP/6-31G(d) empiricaldispersion=gd3bj scf=xqc

CID_143912842_JID_5921_neutraal

0 1
C          1.05898       -0.06036       -0.05364
C          0.97094       -0.42516       -1.51826
C         -2.78548        0.16875        1.90966
C         -4.10885        0.66716        1.32862
N         -5.01287        1.13524        2.37717
C         -4.40672        2.21528        3.15659
C         -3.08333        1.78365        3.79325
C         -2.05825        1.24470        2.76037
C         -1.51141        2.36601        1.82984
C         -0.41522        3.24840        2.44304
C          0.60478        2.45495        3.25536
N         -0.03343        1.53811        4.20145
C         -0.87324        0.57028        3.49191
C         -0.99386        4.37295        3.27207
O         -1.45640        5.39713        2.77599
H          0.95076        1.01932        0.07857
H          2.02665       -0.35990        0.35971
H          0.27241       -0.56586        0.51207
H          1.09706       -1.50347       -1.65385
H         -0.00214       -0.13784       -1.92765
H          1.75048        0.08735       -2.08975
H         -2.98588       -0.71529        2.53090
H         -2.14054       -0.17483        1.09169
H         -4.59503       -0.15264        0.78784
H         -3.94037        1.46173        0.59281
H         -5.23098        0.35867        3.00165
H         -4.27342        3.10318        2.52911
H         -5.10627        2.50584        3.94851
H         -3.30130        0.99461        4.52697
H         -2.67532        2.61693        4.37072
H         -1.07383        1.88840        0.94362
H         -2.32267        2.99570        1.44899
H          0.12169        3.74434        1.62271
H          1.25192        3.13813        3.81805
H          1.25938        1.88921        2.58053
H          0.69203        1.03011        4.71128
H         -1.25214       -0.15493        4.22244
H         -0.25791       -0.00283        2.78754
H         -1.04570        4.20818        4.36192

--Link1--
%chk=JID_5921.chk
%mem=8GB
%nprocshared=4
# B3LYP/6-311++G(d,p) empiricaldispersion=gd3bj scf=xqc pop=npa geom=check

CID_143912842_JID_5921_Energie_neutraal

0 1

--Link1--
%chk=JID_5921.chk
%mem=8GB
%nprocshared=4
# B3LYP/6-311++G(d,p) empiricaldispersion=gd3bj scf=xqc pop=npa geom=check

CID_143912842_JID_5921_Energie_kation

1 2

--Link1--
%chk=JID_5921.chk
%mem=8GB
%nprocshared=4
# B3LYP/6-311++G(d,p) empiricaldispersion=gd3bj scf=xqc pop=npa geom=check

CID_143912842_JID_5921_Energie_anion

-1 2
