%chk=JID_3305.chk
%mem=8GB
%nprocshared=4
# opt freq B3LYP/6-31G(d) empiricaldispersion=gd3bj scf=xqc

CID_147867702_JID_3305_neutraal

0 1
C          1.03364       -0.09142       -0.02257
C          0.56925        1.14983       -0.78242
C          0.92638        1.02783       -2.25961
N         -0.89408        1.25427       -0.61354
S         -1.59859        2.79659       -0.58125
O         -1.03652        3.52035       -1.70332
O         -3.02402        2.53842       -0.53141
C         -1.09957        3.53467        0.93583
C         -0.68049        4.81383        0.93005
C         -0.23980        5.53462        2.17272
C         -0.40507        4.75790        3.49315
C         -0.83598        3.32592        3.35015
C         -1.15531        2.77655        2.16949
H          0.55920       -0.99972       -0.41102
H          0.77681       -0.01405        1.03975
H          2.11906       -0.21312       -0.09985
H          1.06785        2.02275       -0.34740
H          0.42667        0.16932       -2.72206
H          0.63083        1.91921       -2.82017
H          2.00661        0.90046       -2.38740
H         -1.44702        0.63805       -1.21072
H         -0.64398        5.38105        0.00214
H         -0.79424        6.47837        2.24611
H          0.81522        5.81025        2.05121
H          0.54274        4.78837        4.04424
H         -1.14073        5.27549        4.12145
H         -0.90284        2.73040        4.25679
H         -1.48137        1.74058        2.11392

--Link1--
%chk=JID_3305.chk
%mem=8GB
%nprocshared=4
# B3LYP/6-311++G(d,p) empiricaldispersion=gd3bj scf=xqc pop=npa geom=check

CID_147867702_JID_3305_Energie_neutraal

0 1

--Link1--
%chk=JID_3305.chk
%mem=8GB
%nprocshared=4
# B3LYP/6-311++G(d,p) empiricaldispersion=gd3bj scf=xqc pop=npa geom=check

CID_147867702_JID_3305_Energie_kation

1 2

--Link1--
%chk=JID_3305.chk
%mem=8GB
%nprocshared=4
# B3LYP/6-311++G(d,p) empiricaldispersion=gd3bj scf=xqc pop=npa geom=check

CID_147867702_JID_3305_Energie_anion

-1 2
