%chk=JID_6312.chk
%mem=8GB
%nprocshared=4
# opt freq B3LYP/6-31G(d) empiricaldispersion=gd3bj scf=xqc

CID_103550836_JID_6312_neutraal

0 1
C          1.00030        0.03373        0.09414
C          0.78717       -0.31650       -1.37674
C          1.41287       -1.68034       -1.68371
C         -0.71065       -0.33795       -1.76536
N         -1.38935        0.93383       -1.57078
C         -2.44497        1.47539       -2.23115
O         -3.03441        2.41284       -1.68591
C         -2.88131        1.00820       -3.61260
C         -1.81970        1.17908       -4.69325
C         -2.28550        0.23648       -5.79189
C         -2.80762       -0.99564       -5.04672
C         -3.37725       -0.43881       -3.72682
C         -1.75529       -2.06339       -4.80974
O         -1.66612       -2.78981       -3.83376
O         -0.90030       -2.21957       -5.83592
O          1.48779        0.66562       -2.14923
H          0.45868       -0.65102        0.75467
H          0.68114        1.05825        0.31328
H          2.06487       -0.00921        0.35302
H          0.94485       -2.47892       -1.09856
H          1.31209       -1.92572       -2.74722
H          2.48754       -1.67565       -1.46889
H         -0.79197       -0.60847       -2.81408
H         -1.25471       -1.08557       -1.17730
H         -1.27209        1.37486       -0.66527
H         -3.72843        1.65495       -3.88781
H         -1.76659        2.21442       -5.04631
H         -0.81704        0.90745       -4.35210
H         -1.48577        0.03398       -6.50928
H         -3.11071        0.70340       -6.34448
H         -3.59929       -1.48293       -5.62840
H         -3.13568       -1.04561       -2.85043
H         -4.47344       -0.42842       -3.78773
H         -0.32981       -2.97121       -5.56938
H          1.20089        0.59008       -3.07448

--Link1--
%chk=JID_6312.chk
%mem=8GB
%nprocshared=4
# B3LYP/6-311++G(d,p) empiricaldispersion=gd3bj scf=xqc pop=npa geom=check

CID_103550836_JID_6312_Energie_neutraal

0 1

--Link1--
%chk=JID_6312.chk
%mem=8GB
%nprocshared=4
# B3LYP/6-311++G(d,p) empiricaldispersion=gd3bj scf=xqc pop=npa geom=check

CID_103550836_JID_6312_Energie_kation

1 2

--Link1--
%chk=JID_6312.chk
%mem=8GB
%nprocshared=4
# B3LYP/6-311++G(d,p) empiricaldispersion=gd3bj scf=xqc pop=npa geom=check

CID_103550836_JID_6312_Energie_anion

-1 2
