%chk=JID_7678.chk
%mem=8GB
%nprocshared=4
# opt freq B3LYP/6-31G(d) empiricaldispersion=gd3bj scf=xqc

CID_12894111_JID_7678_neutraal

0 1
C          0.97602       -0.03344        0.09114
C          0.64374        1.35123       -0.38549
C         -0.58715        1.83236       -0.80226
C         -0.46826        3.21999       -1.04995
C          0.86332        3.55719       -0.85072
N          1.53464        2.42304       -0.37750
C          2.89427        2.37896        0.05182
C          3.38792        3.37563        0.90407
C          4.71570        3.33253        1.33370
C          5.55344        2.30094        0.91273
C          5.06617        1.30944        0.06209
C          3.73798        1.34437       -0.36833
C          1.57259        4.83604       -1.17406
C         -1.52816        4.08239       -1.49491
C         -1.66581        5.37188       -1.14616
C         -2.77762        6.27826       -1.64893
N         -3.69995        7.03017       -2.06602
H          0.05744       -0.57262        0.34815
H          1.59937       -0.01392        0.98987
H          1.48012       -0.60202       -0.69539
H         -1.48821        1.23619       -0.88239
H          2.74363        4.16766        1.27614
H          5.09455        4.09972        2.00432
H          6.58726        2.26962        1.24754
H          5.72411        0.51158       -0.27333
H          3.39590        0.58365       -1.06387
H          1.08625        5.35131       -2.00888
H          1.56721        5.50856       -0.31112
H          2.60694        4.66515       -1.48764
H         -2.28079        3.63193       -2.14035
H         -0.97070        5.85828       -0.47170

--Link1--
%chk=JID_7678.chk
%mem=8GB
%nprocshared=4
# B3LYP/6-311++G(d,p) empiricaldispersion=gd3bj scf=xqc pop=npa geom=check

CID_12894111_JID_7678_Energie_neutraal

0 1

--Link1--
%chk=JID_7678.chk
%mem=8GB
%nprocshared=4
# B3LYP/6-311++G(d,p) empiricaldispersion=gd3bj scf=xqc pop=npa geom=check

CID_12894111_JID_7678_Energie_kation

1 2

--Link1--
%chk=JID_7678.chk
%mem=8GB
%nprocshared=4
# B3LYP/6-311++G(d,p) empiricaldispersion=gd3bj scf=xqc pop=npa geom=check

CID_12894111_JID_7678_Energie_anion

-1 2
