%chk=JID_4691.chk
%mem=8GB
%nprocshared=4
# opt=(cartesian,calcfc,maxcycle=500) freq B3LYP/6-31G(d) empiricaldispersion=gd3bj scf=xqc

CID_116550073_JID_4691_neutraal

0 1
O       -0.5363 1.1318  0.7069
N       6.9257  0.4683  -0.0590
C       -3.1143 0.0384  0.3705
C       -1.8544 -0.7574 -0.0249
C       -3.4248 1.1140  -0.6938
C       -4.2954 -0.9162 0.6521
C       0.7344  -0.7433 -0.0611
C       -0.5565 -0.0073 0.2406
C       1.9649  0.1285  0.1722
C       3.2693  -0.5880 -0.1895
C       4.4849  0.3007  0.0855
C       -4.6273 1.9834  -0.3537
C       -4.7529 -1.7510 -0.5363
C       5.7827  -0.4018 -0.3094
H       -2.9148 0.5598  1.3168
H       -1.8805 -1.0300 -1.0858
H       -1.7989 -1.6800 0.5654
H       -3.5877 0.6475  -1.6725
H       -2.5569 1.7731  -0.8117
H       -4.0093 -1.5996 1.4620
H       -5.1497 -0.3474 1.0365
H       0.7770  -1.6322 0.5774
H       0.7005  -1.0654 -1.1077
H       1.9989  0.4374  1.2248
H       1.8820  1.0483  -0.4208
H       3.2488  -0.8697 -1.2492
H       3.3524  -1.5147 0.3911
H       4.5116  0.5641  1.1504
H       4.3861  1.2382  -0.4765
H       -4.5213 2.4300  0.6398
H       -5.5593 1.4119  -0.3825
H       -4.7189 2.7961  -1.0817
H       -5.1176 -1.1209 -1.3525
H       -3.9463 -2.3830 -0.9189
H       -5.5745 -2.4089 -0.2343
H       5.9001  -1.3296 0.2613
H       5.7611  -0.6643 -1.3725
H       7.7859  -0.0326 -0.2778
H       6.9726  0.6967  0.9332

--Link1--
%chk=JID_4691.chk
%mem=8GB
%nprocshared=4
# B3LYP/6-311++G(d,p) empiricaldispersion=gd3bj scf=xqc pop=npa geom=check

CID_116550073_JID_4691_Energie_neutraal

0 1

--Link1--
%chk=JID_4691.chk
%mem=8GB
%nprocshared=4
# B3LYP/6-311++G(d,p) empiricaldispersion=gd3bj scf=xqc pop=npa geom=check

CID_116550073_JID_4691_Energie_kation

1 2

--Link1--
%chk=JID_4691.chk
%mem=8GB
%nprocshared=4
# B3LYP/6-311++G(d,p) empiricaldispersion=gd3bj scf=xqc pop=npa geom=check

CID_116550073_JID_4691_Energie_anion

-1 2
