%chk=JID_6218.chk
%mem=8GB
%nprocshared=4
# opt freq B3LYP/6-31G(d) empiricaldispersion=gd3bj scf=xqc

CID_127947064_JID_6218_neutraal

0 1
C          1.02827        0.06121        0.07385
C          0.53069       -0.99007       -0.92808
C          0.25293       -2.28009       -0.13996
O         -0.87007       -2.61420        0.23164
N          1.35828       -3.01402        0.19704
C          1.41126       -4.35147        0.76134
C          2.95509       -4.20581        0.69870
C          2.71253       -3.05622       -0.31663
C          3.74613       -5.39933        0.15054
C          4.66348       -5.80528        1.30032
C          4.97848       -4.48343        1.98054
C          3.62127       -3.79093        2.02233
C         -0.65668       -0.50168       -1.83055
C         -0.16874        0.64627       -2.74691
C         -1.12665       -1.64481       -2.75691
C         -1.86299        0.02539       -1.03097
H          0.26305        0.29723        0.82057
H          1.32753        0.98800       -0.42235
H          1.90193       -0.30063        0.62673
H          1.36349       -1.20967       -1.61008
H          0.97114       -4.42814        1.75866
H          0.96940       -5.10176        0.09793
H          2.74830       -3.33521       -1.37482
H          3.29232       -2.14528       -0.15171
H          3.10714       -6.23022       -0.16360
H          4.35553       -5.09629       -0.70930
H          5.56067       -6.32399        0.95117
H          4.13045       -6.46781        1.99279
H          5.68282       -3.90308        1.37276
H          5.40818       -4.61436        2.97754
H          3.72135       -2.70724        2.13744
H          3.04898       -4.17084        2.87727
H          0.71322        0.34573       -3.32352
H         -0.94626        0.93808       -3.46286
H          0.09007        1.54342       -2.17581
H         -1.59103       -2.46370       -2.19942
H         -1.87237       -1.28826       -3.47721
H         -0.28791       -2.05876       -3.32794
H         -2.29128       -0.73544       -0.37358
H         -1.59487        0.89034       -0.41572
H         -2.66400        0.35031       -1.70593

--Link1--
%chk=JID_6218.chk
%mem=8GB
%nprocshared=4
# B3LYP/6-311++G(d,p) empiricaldispersion=gd3bj scf=xqc pop=npa geom=check

CID_127947064_JID_6218_Energie_neutraal

0 1

--Link1--
%chk=JID_6218.chk
%mem=8GB
%nprocshared=4
# B3LYP/6-311++G(d,p) empiricaldispersion=gd3bj scf=xqc pop=npa geom=check

CID_127947064_JID_6218_Energie_kation

1 2

--Link1--
%chk=JID_6218.chk
%mem=8GB
%nprocshared=4
# B3LYP/6-311++G(d,p) empiricaldispersion=gd3bj scf=xqc pop=npa geom=check

CID_127947064_JID_6218_Energie_anion

-1 2
