%chk=JID_6334.chk
%mem=8GB
%nprocshared=4
# opt freq B3LYP/6-31G(d) empiricaldispersion=gd3bj scf=xqc

CID_123918462_JID_6334_neutraal

0 1
C          2.59200       -0.49000       -0.02200
C          1.13633       -0.20699        0.00321
C          0.01518       -1.02665        0.04983
C         -1.07996       -0.11375        0.06081
N         -0.67211        1.16002        0.01828
N          0.66189        1.07546       -0.01609
C         -2.53263       -0.42445        0.10784
C         -0.05989       -2.48260        0.08252
O         -1.12149       -3.08840        0.18166
O          1.19599       -3.08135       -0.01363
C          1.23316       -4.48255       -0.02883
C          2.01936       -5.11065        0.93551
C          2.13177       -6.50049        0.92624
C          1.47177       -7.24783       -0.05150
C          0.70425       -6.60725       -1.02668
C          0.59039       -5.21724       -1.02460
H          2.88447       -1.07548        0.85537
H          2.85726       -1.05286       -0.92246
H          3.18237        0.43230       -0.01851
H          1.19264        1.93999       -0.05087
H         -2.81899       -1.04700       -0.74574
H         -2.77930       -0.95943        1.03034
H         -3.13933        0.48668        0.07568
H          2.53760       -4.52640        1.68962
H          2.73390       -7.00278        1.67886
H          1.55755       -8.33172       -0.05564
H          0.19469       -7.19218       -1.78810
H         -0.00206       -4.72252       -1.78829

--Link1--
%chk=JID_6334.chk
%mem=8GB
%nprocshared=4
# B3LYP/6-311++G(d,p) empiricaldispersion=gd3bj scf=xqc pop=npa geom=check

CID_123918462_JID_6334_Energie_neutraal

0 1

--Link1--
%chk=JID_6334.chk
%mem=8GB
%nprocshared=4
# B3LYP/6-311++G(d,p) empiricaldispersion=gd3bj scf=xqc pop=npa geom=check

CID_123918462_JID_6334_Energie_kation

1 2

--Link1--
%chk=JID_6334.chk
%mem=8GB
%nprocshared=4
# B3LYP/6-311++G(d,p) empiricaldispersion=gd3bj scf=xqc pop=npa geom=check

CID_123918462_JID_6334_Energie_anion

-1 2
