%chk=JID_10444.chk
%mem=8GB
%nprocshared=4
# opt freq B3LYP/6-31G(d) empiricaldispersion=gd3bj scf=xqc

CID_64010031_JID_10444_neutraal

0 1
C          0.93335        0.00401        0.07444
N          0.97127        1.13495       -1.63776
C          1.33273        0.93329       -3.06469
N          0.68688        1.68477       -3.92081
C          0.27461        2.76178       -3.23568
C          0.63545        2.72694       -1.90849
S          0.89927        4.20506       -0.78915
O          2.12514        4.75306       -1.34691
O         -0.32197        4.98105       -0.83958
N          1.31278        3.84176        0.87438
C          0.25096        3.99997        1.88925
C         -1.02616        3.22122        1.61997
C         -0.80896        1.76612        1.24116
N         -0.09898        1.67116       -0.04353
C         -0.70244        0.19923       -1.15322
C          0.91177       -0.91067       -1.65852
C          2.58143        0.10092       -0.98940
C          1.88023        1.73469       -0.01955
C          2.25567        2.67922        1.09774
N         -0.25979        3.77633       -3.91680
H         -0.03652       -0.41981        0.41390
H          1.29998        0.44609        1.03594
H          1.53637       -0.94053        0.13151
H          2.01387        0.15939       -3.40419
H          0.64984        3.71087        2.86947
H          0.01704        5.06776        1.97751
H         -1.62080        3.71279        0.84187
H         -1.64942        3.26092        2.52252
H         -1.79850        1.30976        1.12280
H         -0.31334        1.23263        2.05837
H         -1.46861       -0.37936       -0.60900
H         -1.17564        0.65370       -2.03791
H          0.89594       -1.19923       -2.71857
H          0.81387       -1.89750       -1.15828
H          3.23955        0.42404       -1.80942
H          3.20192       -0.51172       -0.30878
H          2.36848        2.36071       -0.79433
H          3.28846        3.03395        1.02105
H          2.11462        2.22849        2.08338
H         -0.19424        3.75894       -4.92727
H         -0.35128        4.70205       -3.51028

--Link1--
%chk=JID_10444.chk
%mem=8GB
%nprocshared=4
# B3LYP/6-311++G(d,p) empiricaldispersion=gd3bj scf=xqc pop=npa geom=check

CID_64010031_JID_10444_Energie_neutraal

0 1

--Link1--
%chk=JID_10444.chk
%mem=8GB
%nprocshared=4
# B3LYP/6-311++G(d,p) empiricaldispersion=gd3bj scf=xqc pop=npa geom=check

CID_64010031_JID_10444_Energie_kation

1 2

--Link1--
%chk=JID_10444.chk
%mem=8GB
%nprocshared=4
# B3LYP/6-311++G(d,p) empiricaldispersion=gd3bj scf=xqc pop=npa geom=check

CID_64010031_JID_10444_Energie_anion

-1 2
