%chk=JID_7907.chk
%mem=8GB
%nprocshared=4
# opt freq B3LYP/6-31G(d) empiricaldispersion=gd3bj scf=xqc

CID_64895016_JID_7907_neutraal

0 1
C          1.44200        0.04700       -0.00300
C          1.02825        1.24158        0.57449
C         -0.17112        1.25397        1.26462
N         -0.96711        0.17208        1.40372
C         -0.55947       -0.98448        0.81533
C          0.64455       -1.08512        0.12157
C         -1.46469       -2.19692        0.91230
N         -2.80563       -1.83380        1.32416
C         -4.02390       -2.30894        0.97124
O         -5.00459       -1.84273        1.56560
C         -4.25253       -3.28799       -0.20147
C         -4.60201       -2.53311       -1.49850
C         -3.50784       -1.66280       -2.11485
C         -2.69846       -2.39394       -3.14650
O         -2.81742       -2.30389       -4.35623
O         -1.77656       -3.22008       -2.61543
N         -3.21358       -4.32192       -0.35156
H          2.38120       -0.00050       -0.54708
H          1.62670        2.14171        0.49043
H         -0.53798        2.16215        1.73442
H          0.95261       -2.02326       -0.32878
H         -1.47423       -2.68261       -0.05768
H         -1.06570       -2.89013        1.65974
H         -2.84015       -1.13145        2.05474
H         -5.15556       -3.84130        0.09381
H         -4.96667       -3.25335       -2.24240
H         -5.45124       -1.87356       -1.27317
H         -3.98051       -0.82401       -2.64247
H         -2.84373       -1.20441       -1.37958
H         -1.32570       -3.58573       -3.40888
H         -3.65480       -5.17065       -0.70719
H         -2.56160       -4.04761       -1.09148

--Link1--
%chk=JID_7907.chk
%mem=8GB
%nprocshared=4
# B3LYP/6-311++G(d,p) empiricaldispersion=gd3bj scf=xqc pop=npa geom=check

CID_64895016_JID_7907_Energie_neutraal

0 1

--Link1--
%chk=JID_7907.chk
%mem=8GB
%nprocshared=4
# B3LYP/6-311++G(d,p) empiricaldispersion=gd3bj scf=xqc pop=npa geom=check

CID_64895016_JID_7907_Energie_kation

1 2

--Link1--
%chk=JID_7907.chk
%mem=8GB
%nprocshared=4
# B3LYP/6-311++G(d,p) empiricaldispersion=gd3bj scf=xqc pop=npa geom=check

CID_64895016_JID_7907_Energie_anion

-1 2
