%chk=JID_8945.chk
%mem=8GB
%nprocshared=4
# opt freq B3LYP/6-31G(d) empiricaldispersion=gd3bj scf=xqc

CID_106813860_JID_8945_neutraal

0 1
C          1.26600       -0.09700        0.26800
C          0.47920        1.08749       -0.25777
C         -0.97678        0.64251       -0.17695
C         -0.96485       -0.90229       -0.15755
C          0.51120       -1.28493       -0.30356
C         -1.89934       -1.48197       -1.23582
N         -2.14781       -2.92627       -1.27032
C         -1.03717       -3.72840       -1.78407
C         -1.47316       -5.17546       -2.03066
C         -2.10590       -5.78632       -0.78170
C         -3.22941       -4.89654       -0.22023
C         -2.68107       -3.46759       -0.01646
C         -4.49617       -4.85501       -1.10681
N         -5.13680       -6.17310       -1.22846
C         -6.31025       -6.10911       -2.12808
C         -5.89115       -6.05926       -3.59197
O         -4.82479       -6.42862       -4.06049
O         -6.86286       -5.58501       -4.39711
H          1.23815       -0.11819        1.36380
H          2.31232       -0.07662       -0.04956
H          0.66676        2.00133        0.31339
H          0.74892        1.28175       -1.30283
H         -1.55575        1.06090       -1.00715
H         -1.43012        1.01313        0.75046
H         -1.31545       -1.21654        0.83398
H          0.78166       -1.42098       -1.35736
H          0.75593       -2.20320        0.23813
H         -2.87920       -0.99784       -1.12184
H         -1.55050       -1.16108       -2.22669
H         -0.19476       -3.73696       -1.08581
H         -0.67589       -3.31439       -2.73270
H         -0.60390       -5.77291       -2.32905
H         -2.18152       -5.21358       -2.86673
H         -2.45965       -6.79939       -0.99679
H         -1.32872       -5.89426       -0.01332
H         -3.51735       -5.29150        0.76346
H         -3.49192       -2.82989        0.35753
H         -1.90499       -3.48530        0.75966
H         -5.21412       -4.16249       -0.64937
H         -4.25374       -4.45698       -2.09814
H         -4.47072       -6.82430       -1.65176
H         -6.90585       -7.01719       -1.99039
H         -6.93748       -5.24470       -1.88569
H         -6.46041       -5.61251       -5.29059

--Link1--
%chk=JID_8945.chk
%mem=8GB
%nprocshared=4
# B3LYP/6-311++G(d,p) empiricaldispersion=gd3bj scf=xqc pop=npa geom=check

CID_106813860_JID_8945_Energie_neutraal

0 1

--Link1--
%chk=JID_8945.chk
%mem=8GB
%nprocshared=4
# B3LYP/6-311++G(d,p) empiricaldispersion=gd3bj scf=xqc pop=npa geom=check

CID_106813860_JID_8945_Energie_kation

1 2

--Link1--
%chk=JID_8945.chk
%mem=8GB
%nprocshared=4
# B3LYP/6-311++G(d,p) empiricaldispersion=gd3bj scf=xqc pop=npa geom=check

CID_106813860_JID_8945_Energie_anion

-1 2
