%chk=JID_1221.chk
%mem=8GB
%nprocshared=4
# opt freq B3LYP/6-31G(d) empiricaldispersion=gd3bj scf=xqc

CID_148887675_JID_1221_neutraal

0 1
C          0.94628       -0.06925       -0.04815
C         -0.13988        0.96087        0.18992
C          0.14282        2.47858        0.44477
C          1.31060        3.19334       -0.24105
C          1.59252        2.80515       -1.69304
C          0.38667        2.72093       -2.62238
C         -0.55934        1.54216       -2.37561
C         -1.11016        1.43308       -0.94856
C         -1.25472        2.78714       -0.18570
N         -2.32606        2.66334        0.81938
C         -2.55419        3.95522        1.45594
H          0.50260       -1.06523       -0.15502
H          1.63403       -0.10291        0.80292
H          1.53189        0.11111       -0.94759
H         -0.71379        0.54250        1.03448
H          0.20624        2.71215        1.51744
H          2.22517        3.01367        0.33806
H          1.13337        4.27545       -0.19194
H          2.15592        1.87016       -1.73743
H          2.27970        3.55896       -2.10049
H          0.75795        2.63154       -3.65175
H         -0.16330        3.66835       -2.59647
H         -0.06931        0.60296       -2.65703
H         -1.40599        1.65467       -3.06516
H         -2.02315        0.82179       -0.98420
H         -1.34250        3.68386       -0.80415
H         -2.17199        1.96168        1.54143
H         -3.37087        3.86466        2.17895
H         -1.66646        4.30427        1.99292
H         -2.84967        4.71354        0.72340

--Link1--
%chk=JID_1221.chk
%mem=8GB
%nprocshared=4
# B3LYP/6-311++G(d,p) empiricaldispersion=gd3bj scf=xqc pop=npa geom=check

CID_148887675_JID_1221_Energie_neutraal

0 1

--Link1--
%chk=JID_1221.chk
%mem=8GB
%nprocshared=4
# B3LYP/6-311++G(d,p) empiricaldispersion=gd3bj scf=xqc pop=npa geom=check

CID_148887675_JID_1221_Energie_kation

1 2

--Link1--
%chk=JID_1221.chk
%mem=8GB
%nprocshared=4
# B3LYP/6-311++G(d,p) empiricaldispersion=gd3bj scf=xqc pop=npa geom=check

CID_148887675_JID_1221_Energie_anion

-1 2
