%chk=JID_8640.chk
%mem=8GB
%nprocshared=4
# opt freq B3LYP/6-31G(d) empiricaldispersion=gd3bj scf=xqc

CID_82839905_JID_8640_neutraal

0 1
C          1.05389        0.07962        0.02750
C          1.36086        1.12269        1.09519
N          1.67467        2.45277        0.52070
C          2.55036        2.53497       -0.61096
C          2.06172        2.79946       -1.88970
C          2.94075        2.84925       -2.96932
C          4.30049        2.59786       -2.77446
C          4.78897        2.24895       -1.51316
C          3.91075        2.26627       -0.42701
N          6.16557        2.11122       -1.30502
S          0.77250        3.79483        0.98084
O         -0.04801        4.20154       -0.14459
O          0.12729        3.53132        2.25102
C          1.95905        5.06647        1.23229
S          2.96642        4.88317        2.65785
O          3.53999        3.55240        2.70565
O          3.85102        6.03843        2.67035
C          1.88929        5.07756        4.06057
H          0.25843        0.42197       -0.64253
H          0.72342       -0.85173        0.49875
H          1.93569       -0.15510       -0.57676
H          0.49375        1.18177        1.76044
H          2.20483        0.79342        1.71167
H          1.00179        2.96900       -2.05985
H          2.56827        3.08681       -3.96242
H          4.97745        2.66860       -3.62207
H          4.28702        2.06804        0.57381
H          6.67851        1.78704       -2.11879
H          6.40851        1.59461       -0.46455
H          2.59904        5.14940        0.35160
H          1.41360        6.00963        1.33592
H          1.19932        5.90119        3.87020
H          1.35904        4.14676        4.25612
H          2.51270        5.31751        4.92581

--Link1--
%chk=JID_8640.chk
%mem=8GB
%nprocshared=4
# B3LYP/6-311++G(d,p) empiricaldispersion=gd3bj scf=xqc pop=npa geom=check

CID_82839905_JID_8640_Energie_neutraal

0 1

--Link1--
%chk=JID_8640.chk
%mem=8GB
%nprocshared=4
# B3LYP/6-311++G(d,p) empiricaldispersion=gd3bj scf=xqc pop=npa geom=check

CID_82839905_JID_8640_Energie_kation

1 2

--Link1--
%chk=JID_8640.chk
%mem=8GB
%nprocshared=4
# B3LYP/6-311++G(d,p) empiricaldispersion=gd3bj scf=xqc pop=npa geom=check

CID_82839905_JID_8640_Energie_anion

-1 2
