%chk=JID_6465.chk
%mem=8GB
%nprocshared=4
# opt freq B3LYP/6-31G(d) empiricaldispersion=gd3bj scf=xqc

CID_122543_JID_6465_neutraal

0 1
C          1.09360       -0.00525       -0.03480
C          0.28294       -1.02361       -0.80797
C          0.10801       -2.25480       -0.28393
C         -0.72136       -3.41792       -0.75714
C          0.16840       -4.55901       -1.26681
C          0.44521       -4.84449       -2.79594
C         -0.69811       -5.89072       -2.73961
C         -0.48176       -6.01105       -1.21094
C          0.51760       -7.10359       -0.80477
C         -1.80288       -6.21604       -0.46818
C          0.31482       -3.78997       -3.84931
C         -0.01912       -4.16100       -5.09797
C          0.74181       -2.37878       -3.55725
C         -0.45914       -1.47214       -3.27961
C         -0.21430       -0.48830       -2.13593
O         -1.41629        0.23706       -1.88615
H          0.49283        0.88943        0.15943
H          1.98135        0.28623       -0.60590
H          1.43546       -0.38760        0.93283
H          0.57902       -2.45334        0.68170
H         -1.50293       -3.15185       -1.46693
H         -1.25998       -3.74795        0.14002
H          1.11159       -4.54441       -0.69714
H          1.42599       -5.32974       -2.92148
H         -1.68327       -5.49519       -3.02063
H         -0.52646       -6.80603       -3.31568
H          0.74457       -7.03843        0.26491
H          0.10784       -8.10001       -1.00385
H          1.46431       -7.02388       -1.34852
H         -2.56609       -5.49488       -0.77926
H         -2.20766       -7.21584       -0.66183
H         -1.66256       -6.11512        0.61329
H         -0.05971       -3.43789       -5.90794
H         -0.25423       -5.18883       -5.35658
H          1.47639       -2.38541       -2.74559
H          1.29135       -1.97345       -4.41797
H         -1.38946       -2.02767       -3.12370
H         -0.67259       -0.88796       -4.18669
H          0.51761        0.23995       -2.50829
H         -1.99047       -0.35233       -1.36719

--Link1--
%chk=JID_6465.chk
%mem=8GB
%nprocshared=4
# B3LYP/6-311++G(d,p) empiricaldispersion=gd3bj scf=xqc pop=npa geom=check

CID_122543_JID_6465_Energie_neutraal

0 1

--Link1--
%chk=JID_6465.chk
%mem=8GB
%nprocshared=4
# B3LYP/6-311++G(d,p) empiricaldispersion=gd3bj scf=xqc pop=npa geom=check

CID_122543_JID_6465_Energie_kation

1 2

--Link1--
%chk=JID_6465.chk
%mem=8GB
%nprocshared=4
# B3LYP/6-311++G(d,p) empiricaldispersion=gd3bj scf=xqc pop=npa geom=check

CID_122543_JID_6465_Energie_anion

-1 2
