%chk=JID_4723.chk
%mem=8GB
%nprocshared=4
# opt freq B3LYP/6-31G(d) empiricaldispersion=gd3bj scf=xqc

CID_105696050_JID_4723_neutraal

0 1
C          1.08167       -0.03198       -0.04803
C          0.51263        0.50407       -1.37015
C          1.35845       -0.06125       -2.52011
C         -1.04432        0.31345       -1.51735
C         -1.75470        1.19978       -0.45867
C         -1.53104        0.81919       -2.89507
C         -1.53955       -1.13906       -1.27911
N         -1.04345       -2.12264       -2.22050
C         -1.17925       -3.47979       -2.14165
O         -0.90234       -4.16304       -3.12671
C         -1.61194       -4.10448       -0.83506
C         -0.40176       -4.31543        0.06759
N         -0.82163       -4.85443        1.36561
C          0.32963       -5.09803        2.22531
H          1.00788       -1.12149        0.01145
H          0.57580        0.39725        0.82046
H          2.14279        0.22726        0.04295
H          0.69977        1.58781       -1.37169
H          1.32223       -1.15248       -2.56379
H          1.05345        0.34043       -3.48984
H          2.41046        0.21690       -2.38487
H         -1.43109        2.24405       -0.53351
H         -2.84262        1.18287       -0.59528
H         -1.55796        0.85735        0.56203
H         -1.14755        0.21913       -3.72476
H         -2.62504        0.78979       -2.96131
H         -1.21889        1.85628       -3.06333
H         -1.28676       -1.46571       -0.26540
H         -2.63434       -1.17675       -1.34924
H         -0.83371       -1.82776       -3.16721
H         -2.37413       -3.48268       -0.35403
H         -2.09635       -5.06218       -1.06230
H          0.29225       -5.01065       -0.42115
H          0.13421       -3.37076        0.21154
H         -1.45130       -4.19858        1.82652
H          0.87980       -4.17380        2.43005
H         -0.01029       -5.50661        3.18197
H          1.01043       -5.82953        1.77821

--Link1--
%chk=JID_4723.chk
%mem=8GB
%nprocshared=4
# B3LYP/6-311++G(d,p) empiricaldispersion=gd3bj scf=xqc pop=npa geom=check

CID_105696050_JID_4723_Energie_neutraal

0 1

--Link1--
%chk=JID_4723.chk
%mem=8GB
%nprocshared=4
# B3LYP/6-311++G(d,p) empiricaldispersion=gd3bj scf=xqc pop=npa geom=check

CID_105696050_JID_4723_Energie_kation

1 2

--Link1--
%chk=JID_4723.chk
%mem=8GB
%nprocshared=4
# B3LYP/6-311++G(d,p) empiricaldispersion=gd3bj scf=xqc pop=npa geom=check

CID_105696050_JID_4723_Energie_anion

-1 2
