%chk=JID_5390.chk
%mem=8GB
%nprocshared=4
# opt freq B3LYP/6-31G(d) empiricaldispersion=gd3bj scf=xqc

CID_81925100_JID_5390_neutraal

0 1
C          2.54100        1.06400        0.00800
C          1.33542        0.17103        0.13437
C          0.02353        0.68190        0.32011
C         -1.05427       -0.23392        0.44252
C         -0.81195       -1.61460        0.34449
C          0.47229       -2.10178        0.13461
C          1.53717       -1.21557        0.03120
C         -2.47110        0.21261        0.69014
C         -0.21917        2.18508        0.39544
C         -0.09125        2.92721       -0.94012
C         -0.22856        2.18673       -2.26856
C         -1.34515        3.06136       -1.79906
C          0.83032        4.13556       -0.89320
N          0.21129        5.16441       -0.05881
C          1.05709        6.34687        0.02050
H          2.54508        1.55829       -0.96742
H          2.56389        1.81039        0.80700
H          3.47158        0.49162        0.09244
H         -1.63162       -2.32442        0.43330
H          0.64376       -3.17172        0.05756
H          2.53649       -1.61491       -0.12854
H         -2.53897        0.75968        1.63566
H         -2.82627        0.84005       -0.13061
H         -3.15584       -0.63960        0.76229
H         -1.20291        2.41004        0.82085
H          0.48053        2.59649        1.13409
H          0.36330        2.52325       -3.11294
H         -0.40668        1.11727       -2.28143
H         -2.25977        2.58393       -1.47056
H         -1.51649        3.98721       -2.33729
H          1.80225        3.84219       -0.48294
H          1.00328        4.52393       -1.90465
H         -0.68674        5.42134       -0.46629
H          1.22010        6.79181       -0.96656
H          0.57422        7.09849        0.65259
H          2.02627        6.11091        0.47178

--Link1--
%chk=JID_5390.chk
%mem=8GB
%nprocshared=4
# B3LYP/6-311++G(d,p) empiricaldispersion=gd3bj scf=xqc pop=npa geom=check

CID_81925100_JID_5390_Energie_neutraal

0 1

--Link1--
%chk=JID_5390.chk
%mem=8GB
%nprocshared=4
# B3LYP/6-311++G(d,p) empiricaldispersion=gd3bj scf=xqc pop=npa geom=check

CID_81925100_JID_5390_Energie_kation

1 2

--Link1--
%chk=JID_5390.chk
%mem=8GB
%nprocshared=4
# B3LYP/6-311++G(d,p) empiricaldispersion=gd3bj scf=xqc pop=npa geom=check

CID_81925100_JID_5390_Energie_anion

-1 2
