%chk=JID_7683.chk
%mem=8GB
%nprocshared=4
# opt freq B3LYP/6-31G(d) empiricaldispersion=gd3bj scf=xqc

CID_139514997_JID_7683_neutraal

0 1
C          1.06723       -0.05618        0.04821
C          0.64121       -1.49200       -0.03489
C          1.44558       -2.50414        0.50633
C          1.05500       -3.85583        0.46299
C         -0.18852       -4.18210       -0.10976
C         -1.00196       -3.16915       -0.63637
C         -0.59111       -1.83507       -0.59624
S         -0.78740       -5.86765       -0.18734
N          1.87200       -4.85596        1.03478
N          3.00667       -4.86086        0.50636
C          3.79601       -5.89685        1.04881
C          4.06039       -7.02378        0.25850
C          4.88001       -8.04874        0.73094
C          5.46358       -7.94287        1.99099
C          5.21655       -6.82065        2.78521
C          4.34952       -5.81186        2.34765
N          4.22100       -4.63360        3.11855
H          0.70426        0.38836        0.97995
H          0.67150        0.51792       -0.79619
H          2.15844        0.03005        0.01608
H          2.39775       -2.24763        0.96746
H         -1.96879       -3.40804       -1.07384
H         -1.24356       -1.06515       -1.00335
H         -0.91893       -5.90897       -1.52076
H          3.62467       -7.09267       -0.73469
H          5.07696       -8.91788        0.10889
H          6.12488       -8.72661        2.35165
H          5.70874       -6.73685        3.75047
H          4.27337       -4.80527        4.11713
H          3.37195       -4.13366        2.85610

--Link1--
%chk=JID_7683.chk
%mem=8GB
%nprocshared=4
# B3LYP/6-311++G(d,p) empiricaldispersion=gd3bj scf=xqc pop=npa geom=check

CID_139514997_JID_7683_Energie_neutraal

0 1

--Link1--
%chk=JID_7683.chk
%mem=8GB
%nprocshared=4
# B3LYP/6-311++G(d,p) empiricaldispersion=gd3bj scf=xqc pop=npa geom=check

CID_139514997_JID_7683_Energie_kation

1 2

--Link1--
%chk=JID_7683.chk
%mem=8GB
%nprocshared=4
# B3LYP/6-311++G(d,p) empiricaldispersion=gd3bj scf=xqc pop=npa geom=check

CID_139514997_JID_7683_Energie_anion

-1 2
