%chk=JID_9631.chk
%mem=8GB
%nprocshared=4
# opt freq B3LYP/6-31G(d) empiricaldispersion=gd3bj scf=xqc

CID_44541672_JID_9631_neutraal

0 1
C          0.99361       -0.09107       -0.04082
C          0.23258        0.21470        1.21948
O         -0.97918        0.41679        1.21228
N          0.92157        0.24997        2.39561
C          2.36192        0.28054        2.58052
C          2.79374        1.71623        2.84788
O          2.19174        2.48039        3.59640
C          3.97878        2.19841        2.11219
C          3.73167        3.11432        1.08205
C          4.78268        3.55303        0.28780
C          6.07244        3.07810        0.52407
C          6.33639        2.17609        1.56968
C          5.28295        1.72642        2.40168
C          5.60011        0.85408        3.47584
C          6.90842        0.41953        3.69967
C          7.92176        0.84758        2.84729
C          7.64265        1.72267        1.79776
O          7.31980       -0.41657        4.69980
C          6.36942       -0.74235        5.70645
H          0.29577       -0.14631       -0.88163
H          1.49952       -1.05589        0.04920
H          1.71784        0.70185       -0.24406
H          0.35435        0.56814        3.17595
H          2.59632       -0.32437        3.46104
H          2.87752       -0.13274        1.71128
H          2.72314        3.47965        0.89783
H          4.60175        4.26243       -0.51628
H          6.88214        3.43189       -0.11268
H          4.81078        0.53805        4.14942
H          8.94310        0.51135        3.01105
H          8.46278        2.05281        1.16313
H          5.98860        0.15842        6.19936
H          5.55249       -1.34326        5.29398
H          6.87825       -1.34666        6.46362

--Link1--
%chk=JID_9631.chk
%mem=8GB
%nprocshared=4
# B3LYP/6-311++G(d,p) empiricaldispersion=gd3bj scf=xqc pop=npa geom=check

CID_44541672_JID_9631_Energie_neutraal

0 1

--Link1--
%chk=JID_9631.chk
%mem=8GB
%nprocshared=4
# B3LYP/6-311++G(d,p) empiricaldispersion=gd3bj scf=xqc pop=npa geom=check

CID_44541672_JID_9631_Energie_kation

1 2

--Link1--
%chk=JID_9631.chk
%mem=8GB
%nprocshared=4
# B3LYP/6-311++G(d,p) empiricaldispersion=gd3bj scf=xqc pop=npa geom=check

CID_44541672_JID_9631_Energie_anion

-1 2
