%chk=JID_10028.chk
%mem=8GB
%nprocshared=4
# opt freq B3LYP/6-31G(d) empiricaldispersion=gd3bj scf=xqc

CID_129026895_JID_10028_neutraal

0 1
C          0.90748        0.02628       -0.02736
N          0.94289       -1.41033       -0.18848
C          0.39788       -2.38970        0.58594
O          0.81058       -3.54499        0.44495
C         -0.64031       -2.06896        1.67507
C         -0.04660       -1.41621        2.92335
C          1.41272       -1.72874        3.14943
O          2.27956       -0.86134        3.16231
N          1.72643       -3.03450        3.37757
N         -1.75406       -1.30847        1.10981
C         -3.00262       -1.20174        1.64258
O         -3.88668       -0.57746        1.07279
O         -3.12416       -1.85731        2.81894
C         -4.41212       -1.78195        3.44050
C         -4.40009       -0.71608        4.50470
C         -5.11399        0.47644        4.32649
C         -5.10217        1.46178        5.31510
C         -4.37017        1.26852        6.48533
C         -3.64557        0.09203        6.66715
C         -3.65845       -0.89560        5.68120
H          0.24550        0.34727        0.77391
H          0.58002        0.46314       -0.97392
H          1.92409        0.36533        0.18829
H          1.64101       -1.77281       -0.82880
H         -1.05929       -3.04093        1.97129
H         -0.14747       -0.32497        2.88045
H         -0.60382       -1.72656        3.81598
H          1.15669       -3.78614        3.00667
H          2.71876       -3.23440        3.43139
H         -1.65524       -0.88509        0.19607
H         -5.22164       -1.62886        2.71643
H         -4.60824       -2.75406        3.90818
H         -5.68081        0.64643        3.41281
H         -5.66209        2.38207        5.17000
H         -4.36080        2.03724        7.25356
H         -3.06908       -0.05541        7.57666
H         -3.08520       -1.80747        5.83265

--Link1--
%chk=JID_10028.chk
%mem=8GB
%nprocshared=4
# B3LYP/6-311++G(d,p) empiricaldispersion=gd3bj scf=xqc pop=npa geom=check

CID_129026895_JID_10028_Energie_neutraal

0 1

--Link1--
%chk=JID_10028.chk
%mem=8GB
%nprocshared=4
# B3LYP/6-311++G(d,p) empiricaldispersion=gd3bj scf=xqc pop=npa geom=check

CID_129026895_JID_10028_Energie_kation

1 2

--Link1--
%chk=JID_10028.chk
%mem=8GB
%nprocshared=4
# B3LYP/6-311++G(d,p) empiricaldispersion=gd3bj scf=xqc pop=npa geom=check

CID_129026895_JID_10028_Energie_anion

-1 2
