%chk=JID_10405.chk
%mem=8GB
%nprocshared=4
# opt freq B3LYP/6-31G(d) empiricaldispersion=gd3bj scf=xqc

CID_138436106_JID_10405_neutraal

0 1
C          0.93285       -0.02218       -0.07070
C          0.22947        1.24720        0.32799
O         -0.32080        1.95543       -0.51987
C          0.27760        1.66279        1.79294
N         -0.17245        0.58468        2.70392
C          0.83482       -0.03795        3.47931
C          0.85252       -1.43757        3.60521
C          1.81750       -2.06837        4.40445
C          2.77923       -1.31845        5.08913
C          2.76806        0.06930        4.97266
C          1.80407        0.70033        4.17851
N          1.81478       -3.53041        4.52833
O          1.04973       -4.17015        3.79400
O          2.58468       -4.03889        5.35626
C         -1.56536        0.44548        2.92762
C         -2.07582       -0.09092        4.12038
N         -3.38920       -0.26719        4.41976
C         -4.27361        0.10989        3.48001
C         -3.90190        0.65632        2.26711
C         -2.54065        0.82551        1.99665
H          0.96087       -0.09855       -1.16141
H          0.39576       -0.88590        0.32752
H          1.95985       -0.00755        0.30252
H          1.31338        1.97275        1.97455
H         -0.33399        2.56324        1.93214
H          0.10560       -2.02721        3.07509
H          3.52957       -1.79485        5.71725
H          3.49956        0.66591        5.51406
H          1.79595        1.78807        4.15222
H         -1.41556       -0.39134        4.92932
H         -5.31860       -0.04133        3.73370
H         -4.65202        0.94425        1.53851
H         -2.28314        1.24790        1.03124

--Link1--
%chk=JID_10405.chk
%mem=8GB
%nprocshared=4
# B3LYP/6-311++G(d,p) empiricaldispersion=gd3bj scf=xqc pop=npa geom=check

CID_138436106_JID_10405_Energie_neutraal

0 1

--Link1--
%chk=JID_10405.chk
%mem=8GB
%nprocshared=4
# B3LYP/6-311++G(d,p) empiricaldispersion=gd3bj scf=xqc pop=npa geom=check

CID_138436106_JID_10405_Energie_kation

1 2

--Link1--
%chk=JID_10405.chk
%mem=8GB
%nprocshared=4
# B3LYP/6-311++G(d,p) empiricaldispersion=gd3bj scf=xqc pop=npa geom=check

CID_138436106_JID_10405_Energie_anion

-1 2
