%chk=JID_8928.chk
%mem=8GB
%nprocshared=4
# opt freq B3LYP/6-31G(d) empiricaldispersion=gd3bj scf=xqc

CID_118241818_JID_8928_neutraal

0 1
C          1.02751        0.09585        0.00748
C          1.04016        0.54528       -1.45386
C          1.21685       -0.60046       -2.52420
C          0.06948       -1.59740       -2.27388
C          1.04529        0.01169       -3.97435
C          1.58037        1.43904       -4.16307
N          1.48258       -0.95558       -5.07475
C          0.32723       -1.38303       -5.91105
S          2.88317       -0.56844       -5.99601
O          2.44778        0.19656       -7.14670
O          3.91825       -0.07693       -5.11647
C          3.43604       -2.15682       -6.57249
C          2.64612       -1.17613       -2.34215
O          3.54735       -0.47683       -1.86145
N          3.05125       -2.40588       -2.77754
C          2.37516       -3.69725       -2.67983
C          3.05666       -4.73049       -3.57587
C          2.37790       -4.19326       -1.23351
H          0.14680       -0.51222        0.23341
H          0.99364        0.97233        0.66322
H          1.92069       -0.47963        0.26570
H          0.09982        1.07900       -1.64557
H          1.84179        1.28748       -1.55193
H         -0.88011       -1.06975       -2.11945
H         -0.10294       -2.26137       -3.12198
H          0.24276       -2.21406       -1.38876
H         -0.04000        0.14812       -4.10565
H          2.62086        1.54267       -3.84620
H          1.49184        1.76836       -5.20301
H          0.99304        2.15377       -3.57597
H         -0.08936       -0.53381       -6.46093
H          0.61357       -2.16672       -6.61501
H         -0.46032       -1.80688       -5.28192
H          3.74547       -2.75022       -5.71457
H          2.65543       -2.65165       -7.14745
H          4.30206       -1.98661       -7.21761
H          4.05214       -2.45996       -2.61614
H          1.35063       -3.60190       -3.02717
H          4.12600       -4.81373       -3.35372
H          2.60182       -5.71898       -3.45051
H          2.95353       -4.45829       -4.62933
H          1.92152       -3.46646       -0.55522
H          1.82331       -5.13343       -1.14449
H          3.40039       -4.36790       -0.87986

--Link1--
%chk=JID_8928.chk
%mem=8GB
%nprocshared=4
# B3LYP/6-311++G(d,p) empiricaldispersion=gd3bj scf=xqc pop=npa geom=check

CID_118241818_JID_8928_Energie_neutraal

0 1

--Link1--
%chk=JID_8928.chk
%mem=8GB
%nprocshared=4
# B3LYP/6-311++G(d,p) empiricaldispersion=gd3bj scf=xqc pop=npa geom=check

CID_118241818_JID_8928_Energie_kation

1 2

--Link1--
%chk=JID_8928.chk
%mem=8GB
%nprocshared=4
# B3LYP/6-311++G(d,p) empiricaldispersion=gd3bj scf=xqc pop=npa geom=check

CID_118241818_JID_8928_Energie_anion

-1 2
