%chk=JID_10864.chk
%mem=8GB
%nprocshared=4
# opt freq B3LYP/6-31G(d) empiricaldispersion=gd3bj scf=xqc

CID_62432098_JID_10864_neutraal

0 1
C          1.01309        0.04739        0.08708
C          0.42545        0.94286       -0.99316
N          1.30985        0.94401       -2.15674
C          0.86643        1.86108       -3.20789
C          1.07792        3.28225       -2.80036
C          0.13821        4.29929       -2.75907
O          0.70165        5.45387       -2.30720
C          2.01806        5.19786       -2.06919
C          2.29942        3.88318       -2.37195
C          2.83829        6.31907       -1.52713
N          3.51707        7.16165       -2.52586
C          4.49953        6.42617       -3.32646
C          5.30861        7.38500       -4.20246
C          4.37940        8.21508       -5.10677
C          3.31364        8.91555       -4.24559
C          2.57285        7.90203       -3.36795
N          5.15565        9.08830       -6.01651
C          4.34150        9.57654       -7.13062
C          5.82691       10.20914       -5.35963
C         -1.30381        4.37608       -3.07488
H          1.13212       -0.98082       -0.27119
H          0.35122        0.02510        0.95889
H          1.99181        0.41208        0.41713
H         -0.56455        0.56644       -1.27387
H          0.30160        1.94811       -0.57620
H          2.25625        1.18857       -1.87348
H          1.45733        1.66503       -4.11023
H         -0.17795        1.66176       -3.47212
H          3.26553        3.40842       -2.27547
H          2.20576        6.95450       -0.89360
H          3.59292        5.90570       -0.84532
H          4.01801        5.67619       -3.96608
H          5.19786        5.89515       -2.66824
H          6.01177        6.80648       -4.81428
H          5.90712        8.03212       -3.55021
H          3.85724        7.48367       -5.74138
H          3.77350        9.67167       -3.59731
H          2.58327        9.43289       -4.87743
H          1.86257        8.45361       -2.74002
H          1.98950        7.22757       -4.00735
H          3.55339       10.26418       -6.80587
H          4.96904       10.10108       -7.86017
H          3.87531        8.74336       -7.66806
H          5.12296       10.93718       -4.94278
H          6.49387        9.87234       -4.56094
H          6.46447       10.73817       -6.07775
H         -1.89550        4.33307       -2.15556
H         -1.53651        5.31274       -3.59139
H         -1.61530        3.55195       -3.72299

--Link1--
%chk=JID_10864.chk
%mem=8GB
%nprocshared=4
# B3LYP/6-311++G(d,p) empiricaldispersion=gd3bj scf=xqc pop=npa geom=check

CID_62432098_JID_10864_Energie_neutraal

0 1

--Link1--
%chk=JID_10864.chk
%mem=8GB
%nprocshared=4
# B3LYP/6-311++G(d,p) empiricaldispersion=gd3bj scf=xqc pop=npa geom=check

CID_62432098_JID_10864_Energie_kation

1 2

--Link1--
%chk=JID_10864.chk
%mem=8GB
%nprocshared=4
# B3LYP/6-311++G(d,p) empiricaldispersion=gd3bj scf=xqc pop=npa geom=check

CID_62432098_JID_10864_Energie_anion

-1 2
