%chk=JID_5404.chk
%mem=8GB
%nprocshared=4
# opt freq B3LYP/6-31G(d) empiricaldispersion=gd3bj scf=xqc

CID_131165431_JID_5404_neutraal

0 1
C          0.96564       -0.08810        0.03252
C          0.39491        0.67247        1.20016
C          0.96563        2.08697        1.22840
C          0.44265        2.88146        0.00300
C          0.45896        2.82928        2.45423
C          0.02434        3.46603        3.50575
N          2.45031        2.12406        1.30317
C          3.21970        3.25379        0.82567
C          4.66536        2.85718        1.06192
C          4.58705        1.97189        2.29641
C          3.18282        1.42654        2.26573
O          2.78762        0.54296        3.00856
C          5.52121        4.07497        1.25327
O          5.29011        5.19505        0.82978
O          6.67722        3.81289        1.89045
H          0.66281        0.33226       -0.93060
H          0.59114       -1.11798        0.05239
H          2.05756       -0.14928        0.05673
H         -0.69963        0.69939        1.11660
H          0.59962        0.12735        2.12765
H         -0.64691        2.79671       -0.08931
H          0.66709        3.95221        0.08721
H          0.89114        2.53405       -0.93345
H         -0.32778        3.97706        4.37181
H          2.92619        4.14314        1.39575
H          3.03271        3.42558       -0.23834
H          5.04880        2.28594        0.20787
H          4.72642        2.52798        3.22946
H          5.31013        1.15278        2.24488
H          7.15129        4.67168        1.90969

--Link1--
%chk=JID_5404.chk
%mem=8GB
%nprocshared=4
# B3LYP/6-311++G(d,p) empiricaldispersion=gd3bj scf=xqc pop=npa geom=check

CID_131165431_JID_5404_Energie_neutraal

0 1

--Link1--
%chk=JID_5404.chk
%mem=8GB
%nprocshared=4
# B3LYP/6-311++G(d,p) empiricaldispersion=gd3bj scf=xqc pop=npa geom=check

CID_131165431_JID_5404_Energie_kation

1 2

--Link1--
%chk=JID_5404.chk
%mem=8GB
%nprocshared=4
# B3LYP/6-311++G(d,p) empiricaldispersion=gd3bj scf=xqc pop=npa geom=check

CID_131165431_JID_5404_Energie_anion

-1 2
