%chk=JID_102.chk
%mem=8GB
%nprocshared=4
# opt freq B3LYP/6-31G(d) empiricaldispersion=gd3bj scf=xqc

CID_143913203_JID_102_neutraal

0 1
C          0.93824       -0.00016       -0.07865
C          0.64238        1.15726       -1.01884
C          1.17573        0.94454       -2.43752
C          0.61906       -0.27392       -3.17824
C         -0.89077       -0.24000       -3.35624
C          2.88875        0.87805        3.19228
C          2.40795       -0.44869        3.75093
N          1.53745       -0.26293        4.88778
C          0.20193       -0.00590        4.78739
O         -0.49855        0.26126        5.75307
H          0.41420       -0.91042       -0.38403
H          0.60578        0.24702        0.93449
H          2.01125       -0.21273       -0.04139
H         -0.43680        1.34417       -1.04108
H          1.10389        2.06424       -0.60965
H          0.96220        1.84542       -3.02629
H          2.26854        0.85578       -2.39663
H          1.08535       -0.31559       -4.17014
H          0.90640       -1.19752       -2.66400
H         -1.20821        0.68548       -3.84688
H         -1.21458       -1.08107       -3.97775
H         -1.40951       -0.31951       -2.39640
H          2.04738        1.49458        2.85898
H          3.55329        0.71459        2.33849
H          3.43673        1.44585        3.95158
H          1.86603       -1.00429        2.97838
H          3.25771       -1.05287        4.08300
H          1.92774       -0.16191        5.81758
H         -0.19052       -0.06960        3.75937

--Link1--
%chk=JID_102.chk
%mem=8GB
%nprocshared=4
# B3LYP/6-311++G(d,p) empiricaldispersion=gd3bj scf=xqc pop=npa geom=check

CID_143913203_JID_102_Energie_neutraal

0 1

--Link1--
%chk=JID_102.chk
%mem=8GB
%nprocshared=4
# B3LYP/6-311++G(d,p) empiricaldispersion=gd3bj scf=xqc pop=npa geom=check

CID_143913203_JID_102_Energie_kation

1 2

--Link1--
%chk=JID_102.chk
%mem=8GB
%nprocshared=4
# B3LYP/6-311++G(d,p) empiricaldispersion=gd3bj scf=xqc pop=npa geom=check

CID_143913203_JID_102_Energie_anion

-1 2
