%chk=JID_10737.chk
%mem=8GB
%nprocshared=4
# opt freq B3LYP/6-31G(d) empiricaldispersion=gd3bj scf=xqc

CID_83147793_JID_10737_neutraal

0 1
C          1.05314       -0.07048       -0.04700
C          1.20332       -1.22335       -1.02837
C          1.50728       -2.56470       -0.35571
C          0.48535       -3.02350        0.68894
C         -0.95415       -3.15008        0.18207
C         -1.17119       -4.20202       -0.91113
C         -0.82921       -5.64382       -0.51573
C         -1.50947       -6.15890        0.75815
C         -3.03977       -6.07783        0.76322
C         -3.74212       -6.97618       -0.25969
C         -3.59668       -8.48032       -0.01494
C         -4.13042       -9.02023        1.32352
C         -5.67459       -9.01354        1.57880
C         -6.41066       -9.60036        0.35874
C         -5.91035       -9.82982        2.86480
C         -7.26833      -10.35930        3.26273
C         -6.17247      -11.31767        2.87979
C         -6.13300       -7.57442        1.87463
O         -5.74848       -6.87690        2.80265
O         -7.05559       -7.08347        1.02553
H          0.16851       -0.19080        0.58492
H          0.94329        0.87297       -0.59146
H          1.93296        0.01231        0.59885
H          0.29876       -1.30122       -1.64145
H          2.02325       -0.99059       -1.71866
H          1.60899       -3.33225       -1.13192
H          2.48801       -2.49800        0.13229
H          0.81743       -3.98215        1.10399
H          0.49483       -2.32258        1.53234
H         -1.60222       -3.37191        1.03768
H         -1.29904       -2.18051       -0.19517
H         -2.21986       -4.15759       -1.22916
H         -0.58576       -3.93515       -1.79897
H         -1.08087       -6.30310       -1.35499
H          0.25641       -5.73304       -0.38761
H         -1.19182       -7.19335        0.93196
H         -1.13258       -5.59184        1.61773
H         -3.38867       -6.31789        1.77203
H         -3.35514       -5.04319        0.58860
H         -4.80329       -6.71299       -0.29204
H         -3.36145       -6.75010       -1.26270
H         -4.06788       -9.01877       -0.84492
H         -2.53315       -8.74174       -0.07969
H         -3.79206      -10.06505        1.38636
H         -3.61611       -8.51131        2.14852
H         -6.02411      -10.59015        0.09398
H         -7.48619       -9.69967        0.53693
H         -6.30588       -8.96298       -0.52626
H         -5.30522       -9.43875        3.68274
H         -7.54391      -10.29638        4.31073
H         -8.11078      -10.25140        2.59137
H         -6.28063      -11.86329        1.95128
H         -5.71224      -11.90073        3.67101
H         -7.23626       -6.18556        1.37440

--Link1--
%chk=JID_10737.chk
%mem=8GB
%nprocshared=4
# B3LYP/6-311++G(d,p) empiricaldispersion=gd3bj scf=xqc pop=npa geom=check

CID_83147793_JID_10737_Energie_neutraal

0 1

--Link1--
%chk=JID_10737.chk
%mem=8GB
%nprocshared=4
# B3LYP/6-311++G(d,p) empiricaldispersion=gd3bj scf=xqc pop=npa geom=check

CID_83147793_JID_10737_Energie_kation

1 2

--Link1--
%chk=JID_10737.chk
%mem=8GB
%nprocshared=4
# B3LYP/6-311++G(d,p) empiricaldispersion=gd3bj scf=xqc pop=npa geom=check

CID_83147793_JID_10737_Energie_anion

-1 2
