%chk=JID_4712.chk
%mem=8GB
%nprocshared=4
# opt freq B3LYP/6-31G(d) empiricaldispersion=gd3bj scf=xqc

CID_84117351_JID_4712_neutraal

0 1
C          1.03954       -0.07359       -0.05496
C          0.40142        1.17773       -0.67511
C          0.81612        1.31531       -2.14519
N         -1.05895        1.19353       -0.42363
C         -1.59144        2.56632       -0.49427
C         -3.05622        2.77219       -0.03187
N         -4.03162        2.20839       -0.98213
C         -4.31460        0.78679       -0.78324
C         -3.15347       -0.23161       -0.62859
C         -1.81872        0.24631       -1.25707
C         -3.58170       -1.52864       -1.36331
C         -2.95470       -0.61344        0.85639
C         -3.30798        4.29854        0.07259
O         -4.67428        4.56908        0.39558
H          0.76310       -0.99211       -0.58152
H          0.74830       -0.18086        0.99592
H          2.13229        0.00377       -0.08494
H          0.84914        2.02098       -0.13164
H          0.49068        0.46066       -2.74705
H          0.40845        2.22596       -2.59452
H          1.90737        1.37454       -2.22627
H         -0.96903        3.19973        0.15224
H         -1.47957        2.96428       -1.51191
H         -3.22419        2.35736        0.96864
H         -4.91416        2.70212       -0.83098
H         -4.92373        0.50200       -1.65089
H         -4.99306        0.68904        0.07524
H         -1.99078        0.65295       -2.26307
H         -1.21124       -0.65342       -1.41042
H         -2.84137       -2.32612       -1.23106
H         -4.53970       -1.90169       -0.98288
H         -3.69204       -1.35446       -2.43983
H         -2.71154        0.24888        1.48283
H         -3.86287       -1.06693        1.27048
H         -2.14435       -1.34322        0.96865
H         -2.69144        4.72910        0.86867
H         -3.06122        4.81569       -0.86246
H         -5.10794        4.83749       -0.43304

--Link1--
%chk=JID_4712.chk
%mem=8GB
%nprocshared=4
# B3LYP/6-311++G(d,p) empiricaldispersion=gd3bj scf=xqc pop=npa geom=check

CID_84117351_JID_4712_Energie_neutraal

0 1

--Link1--
%chk=JID_4712.chk
%mem=8GB
%nprocshared=4
# B3LYP/6-311++G(d,p) empiricaldispersion=gd3bj scf=xqc pop=npa geom=check

CID_84117351_JID_4712_Energie_kation

1 2

--Link1--
%chk=JID_4712.chk
%mem=8GB
%nprocshared=4
# B3LYP/6-311++G(d,p) empiricaldispersion=gd3bj scf=xqc pop=npa geom=check

CID_84117351_JID_4712_Energie_anion

-1 2
