%chk=JID_2795.chk
%mem=8GB
%nprocshared=4
# opt freq B3LYP/6-31G(d) empiricaldispersion=gd3bj scf=xqc

CID_84064889_JID_2795_neutraal

0 1
C          0.98526        0.07156       -0.06828
C          0.37430       -0.54172        1.18577
C          0.76041        0.19318        2.49181
C          0.42902        1.70910        2.46470
N         -0.99968        1.98683        2.28477
C         -1.26299        3.42054        2.33023
C          0.16881       -0.46344        3.76074
C          0.62125       -1.89058        4.05839
C         -0.48048       -2.42172        4.97797
C         -1.69272       -1.63289        4.54517
O         -2.84529       -1.83745        4.88136
N         -1.25979       -0.59812        3.74377
H          0.56034        1.05580       -0.28510
H          0.78397       -0.56891       -0.93329
H          2.07046        0.17299        0.03173
H         -0.71436       -0.58126        1.06641
H          0.71781       -1.58025        1.23613
H          1.85379        0.12440        2.58597
H          0.76907        2.15170        3.40997
H          1.00757        2.19610        1.67078
H         -1.30237        1.62870        1.37781
H         -0.72892        3.95184        1.53575
H         -2.33420        3.59780        2.19334
H         -0.98021        3.84423        3.29923
H          0.41164        0.15978        4.63270
H          1.60957       -1.92947        4.52627
H          0.65348       -2.51177        3.15766
H         -0.26726       -2.19725        6.02741
H         -0.63989       -3.49386        4.84145
H         -1.88029        0.17161        3.50588

--Link1--
%chk=JID_2795.chk
%mem=8GB
%nprocshared=4
# B3LYP/6-311++G(d,p) empiricaldispersion=gd3bj scf=xqc pop=npa geom=check

CID_84064889_JID_2795_Energie_neutraal

0 1

--Link1--
%chk=JID_2795.chk
%mem=8GB
%nprocshared=4
# B3LYP/6-311++G(d,p) empiricaldispersion=gd3bj scf=xqc pop=npa geom=check

CID_84064889_JID_2795_Energie_kation

1 2

--Link1--
%chk=JID_2795.chk
%mem=8GB
%nprocshared=4
# B3LYP/6-311++G(d,p) empiricaldispersion=gd3bj scf=xqc pop=npa geom=check

CID_84064889_JID_2795_Energie_anion

-1 2
