%chk=JID_4257.chk
%mem=8GB
%nprocshared=4
# opt freq B3LYP/6-31G(d) empiricaldispersion=gd3bj scf=xqc

CID_14338037_JID_4257_neutraal

0 1
C          1.08442        0.02176       -0.04899
C          0.57546       -1.12221       -0.91230
C          0.84688       -2.50743       -0.31627
C          0.16288       -2.79280        1.02546
C         -1.33383       -2.84193        0.92186
C         -2.11649       -3.81559        0.33057
C         -3.51067       -3.52686        0.42380
C         -3.73189       -2.33671        1.08760
S         -2.29225       -1.59747        1.60640
C         -5.07669       -1.74217        1.37858
C         -6.17676       -2.39566        0.51062
C         -5.99090       -3.92835        0.44162
C         -4.62951       -4.35091       -0.13461
C         -6.23395       -1.76847       -0.88644
H          0.54353        0.08499        0.89912
H          0.94857        0.97443       -0.57106
H          2.15080       -0.09516        0.16838
H         -0.49472       -0.98946       -1.10476
H          1.07365       -1.06592       -1.88791
H          0.54284       -3.26430       -1.05061
H          1.92976       -2.62627       -0.18393
H          0.50819       -3.77094        1.38584
H          0.48690       -2.06850        1.78140
H         -1.70469       -4.69252       -0.15462
H         -5.06888       -0.65592        1.23007
H         -5.30826       -1.92377        2.43622
H         -7.14378       -2.19265        0.98931
H         -6.08505       -4.33273        1.45858
H         -6.79433       -4.38386       -0.14935
H         -4.45903       -5.41249        0.07894
H         -4.63950       -4.23908       -1.22552
H         -7.01846       -2.23898       -1.48845
H         -6.46494       -0.70002       -0.81672
H         -5.28752       -1.86781       -1.42674

--Link1--
%chk=JID_4257.chk
%mem=8GB
%nprocshared=4
# B3LYP/6-311++G(d,p) empiricaldispersion=gd3bj scf=xqc pop=npa geom=check

CID_14338037_JID_4257_Energie_neutraal

0 1

--Link1--
%chk=JID_4257.chk
%mem=8GB
%nprocshared=4
# B3LYP/6-311++G(d,p) empiricaldispersion=gd3bj scf=xqc pop=npa geom=check

CID_14338037_JID_4257_Energie_kation

1 2

--Link1--
%chk=JID_4257.chk
%mem=8GB
%nprocshared=4
# B3LYP/6-311++G(d,p) empiricaldispersion=gd3bj scf=xqc pop=npa geom=check

CID_14338037_JID_4257_Energie_anion

-1 2
