%chk=JID_3837.chk
%mem=8GB
%nprocshared=4
# opt freq B3LYP/6-31G(d) empiricaldispersion=gd3bj scf=xqc

CID_131328012_JID_3837_neutraal

0 1
C          0.94768       -0.06307       -0.05732
C          0.53018       -1.52309       -0.17962
C          1.33123       -2.48338        0.73360
C          1.12436       -2.11727        2.21416
C          0.93465       -3.97063        0.47137
C          1.05345       -4.42205       -0.96504
C          2.10505       -4.38075       -1.79013
C          1.58264       -4.91660       -3.04896
O          2.18103       -4.94443       -4.10858
N          0.30874       -5.35096       -2.80939
O         -0.10971       -4.95249       -1.52170
C          3.50518       -3.93255       -1.64977
N          1.68422       -4.88864        1.33932
H          0.67716        0.35501        0.91629
H          0.44009        0.53545       -0.82097
H          2.02671        0.05104       -0.20051
H         -0.54173       -1.60912        0.03669
H          0.66286       -1.80810       -1.22904
H          2.39754       -2.34884        0.51479
H          0.06679       -2.18158        2.49164
H          1.69004       -2.78018        2.87646
H          1.47102       -1.10151        2.42640
H         -0.12037       -4.07037        0.76151
H         -0.37166       -5.48480       -3.54305
H          3.67030       -3.01171       -2.21786
H          3.77736       -3.74382       -0.60864
H          4.19192       -4.69690       -2.02821
H          1.39174       -5.84577        1.14508
H          2.67751       -4.83583        1.12615

--Link1--
%chk=JID_3837.chk
%mem=8GB
%nprocshared=4
# B3LYP/6-311++G(d,p) empiricaldispersion=gd3bj scf=xqc pop=npa geom=check

CID_131328012_JID_3837_Energie_neutraal

0 1

--Link1--
%chk=JID_3837.chk
%mem=8GB
%nprocshared=4
# B3LYP/6-311++G(d,p) empiricaldispersion=gd3bj scf=xqc pop=npa geom=check

CID_131328012_JID_3837_Energie_kation

1 2

--Link1--
%chk=JID_3837.chk
%mem=8GB
%nprocshared=4
# B3LYP/6-311++G(d,p) empiricaldispersion=gd3bj scf=xqc pop=npa geom=check

CID_131328012_JID_3837_Energie_anion

-1 2
