%chk=JID_3779.chk
%mem=8GB
%nprocshared=4
# opt freq B3LYP/6-31G(d) empiricaldispersion=gd3bj scf=xqc

CID_84656189_JID_3779_neutraal

0 1
C         -2.28000        0.74400        1.04400
C         -1.53966        1.92340        0.39676
C         -0.68611        1.57871       -0.82616
C          0.63190        0.93147       -0.48669
C          0.70804       -0.43247       -0.19530
C          1.92314       -1.03402        0.12171
C          3.08229       -0.25869        0.17532
C          3.04399        1.10181       -0.14073
C          1.80746        1.69598       -0.41945
N          4.18213        1.89825        0.04105
O         -0.43668       -1.17801       -0.25360
C         -0.94807       -1.45762        1.05196
C         -1.39196       -0.21849        1.83783
H         -2.87219        0.20506        0.29514
H         -3.00205        1.17669        1.74910
H         -2.30581        2.63737        0.06680
H         -0.93815        2.44611        1.15087
H         -0.48494        2.50544       -1.37986
H         -1.24876        0.94590       -1.52382
H          1.96973       -2.09672        0.33739
H          4.01897       -0.72836        0.46205
H          1.75729        2.76807       -0.59345
H          4.16303        2.76051       -0.49458
H          5.05430        1.39279       -0.07939
H         -0.22813       -2.04728        1.63354
H         -1.82003       -2.10547        0.90282
H         -0.51915        0.31558        2.23151
H         -1.94872       -0.57194        2.71494

--Link1--
%chk=JID_3779.chk
%mem=8GB
%nprocshared=4
# B3LYP/6-311++G(d,p) empiricaldispersion=gd3bj scf=xqc pop=npa geom=check

CID_84656189_JID_3779_Energie_neutraal

0 1

--Link1--
%chk=JID_3779.chk
%mem=8GB
%nprocshared=4
# B3LYP/6-311++G(d,p) empiricaldispersion=gd3bj scf=xqc pop=npa geom=check

CID_84656189_JID_3779_Energie_kation

1 2

--Link1--
%chk=JID_3779.chk
%mem=8GB
%nprocshared=4
# B3LYP/6-311++G(d,p) empiricaldispersion=gd3bj scf=xqc pop=npa geom=check

CID_84656189_JID_3779_Energie_anion

-1 2
