%chk=JID_7342.chk
%mem=8GB
%nprocshared=4
# opt freq B3LYP/6-31G(d) empiricaldispersion=gd3bj scf=xqc

CID_62786058_JID_7342_neutraal

0 1
C         -2.37200       -0.01600        0.01400
C         -0.89219       -0.22510        0.08879
N         -0.44250       -1.22871        0.86233
C          0.88719       -1.41704        0.86736
C          1.76469       -0.64482        0.14498
C          1.21061        0.36572       -0.61103
N         -0.11216        0.57897       -0.65877
N          1.98874        1.20712       -1.40743
C          2.99443        1.96350       -0.67416
C          3.60366        2.99813       -1.58954
C          4.51680        2.61267       -2.58382
C          5.08607        3.55275       -3.44777
C          4.73473        4.89628       -3.32010
C          3.81811        5.29194       -2.34193
C          3.25236        4.34916       -1.48312
O          5.96256        3.03277       -4.36003
C          6.53186        3.94077       -5.29418
H         -2.77955       -0.56897       -0.83720
H         -2.85931       -0.36719        0.92869
H         -2.60329        1.04624       -0.11085
H          1.23891       -2.23930        1.48292
H          2.82641       -0.84414        0.15436
H          1.32186        1.83281       -1.85846
H          2.55154        2.45956        0.19964
H          3.79424        1.30921       -0.30553
H          4.78169        1.56268       -2.69491
H          5.15173        5.66057       -3.96693
H          3.54284        6.33996       -2.25193
H          2.53562        4.67635       -0.73304
H          5.75853        4.41214       -5.90979
H          7.14795        4.69161       -4.78858
H          7.18479        3.36900       -5.96069

--Link1--
%chk=JID_7342.chk
%mem=8GB
%nprocshared=4
# B3LYP/6-311++G(d,p) empiricaldispersion=gd3bj scf=xqc pop=npa geom=check

CID_62786058_JID_7342_Energie_neutraal

0 1

--Link1--
%chk=JID_7342.chk
%mem=8GB
%nprocshared=4
# B3LYP/6-311++G(d,p) empiricaldispersion=gd3bj scf=xqc pop=npa geom=check

CID_62786058_JID_7342_Energie_kation

1 2

--Link1--
%chk=JID_7342.chk
%mem=8GB
%nprocshared=4
# B3LYP/6-311++G(d,p) empiricaldispersion=gd3bj scf=xqc pop=npa geom=check

CID_62786058_JID_7342_Energie_anion

-1 2
