%chk=JID_10384.chk
%mem=8GB
%nprocshared=4
# opt freq B3LYP/6-31G(d) empiricaldispersion=gd3bj scf=xqc

CID_61956972_JID_10384_neutraal

0 1
C          0.92763       -0.05786       -0.03762
C         -0.33096       -0.89749        0.12777
C         -0.06946       -2.40832        0.02401
N          0.87187       -2.91768        1.03411
C          1.40521       -4.24493        0.66316
C          2.49549       -4.24410       -0.44326
N          3.86632       -4.02006        0.06122
C          4.84936       -4.39602       -0.95722
C          4.07275       -2.61900        0.44117
C          0.26434       -2.95130        2.38214
C          1.21570       -2.30420        3.38813
O          1.14028       -1.10679        3.66899
C          2.28934       -3.11955        4.02333
C          3.50268       -2.48602        4.32248
C          4.53302       -3.22279        4.88768
C          4.36958       -4.57516        5.17654
C          3.16251       -5.20969        4.91025
C          2.11686       -4.47732        4.33516
O          5.42940       -5.23988        5.72794
O          5.72325       -2.60940        5.15590
H          1.63668       -0.23455        0.77676
H          0.67298        1.00673       -0.03355
H          1.42774       -0.28302       -0.98497
H         -0.81140       -0.64381        1.07857
H         -1.04165       -0.61787       -0.65962
H         -1.02317       -2.94899        0.08375
H          0.31885       -2.59094       -0.98458
H          1.84116       -4.74389        1.53637
H          0.57638       -4.89073        0.34193
H          2.46116       -5.24986       -0.88427
H          2.25415       -3.55135       -1.25776
H          4.74113       -3.80785       -1.87559
H          5.86862       -4.26130       -0.57755
H          4.75283       -5.45735       -1.21212
H          3.89256       -1.93321       -0.39465
H          3.42802       -2.32880        1.27221
H          5.09975       -2.46592        0.79276
H         -0.66440       -2.36950        2.43664
H         -0.03572       -3.95828        2.68722
H          3.64968       -1.43251        4.09892
H          3.01488       -6.26031        5.13925
H          1.17620       -4.98481        4.14666
H          5.18078       -6.17364        5.83762
H          6.28640       -3.31545        5.53039

--Link1--
%chk=JID_10384.chk
%mem=8GB
%nprocshared=4
# B3LYP/6-311++G(d,p) empiricaldispersion=gd3bj scf=xqc pop=npa geom=check

CID_61956972_JID_10384_Energie_neutraal

0 1

--Link1--
%chk=JID_10384.chk
%mem=8GB
%nprocshared=4
# B3LYP/6-311++G(d,p) empiricaldispersion=gd3bj scf=xqc pop=npa geom=check

CID_61956972_JID_10384_Energie_kation

1 2

--Link1--
%chk=JID_10384.chk
%mem=8GB
%nprocshared=4
# B3LYP/6-311++G(d,p) empiricaldispersion=gd3bj scf=xqc pop=npa geom=check

CID_61956972_JID_10384_Energie_anion

-1 2
