%chk=JID_9895.chk
%mem=8GB
%nprocshared=4
# opt freq B3LYP/6-31G(d) empiricaldispersion=gd3bj scf=xqc

CID_128653161_JID_9895_neutraal

0 1
C          0.92618        0.06659       -0.01082
C          0.09012        0.76864        0.99266
C         -1.00680        1.58712        0.82546
C         -1.52312        2.04420        2.09246
N         -0.82215        1.62878        3.15517
S          0.41852        0.65520        2.66239
C         -2.67535        2.95524        2.21578
O         -3.02914        3.67093        1.27613
N         -3.39657        3.04258        3.38918
C         -3.61626        1.98706        4.36647
C         -3.83512        2.47255        5.82949
C         -4.89882        3.59855        5.85115
C         -4.44700        1.27197        6.60267
C         -2.52754        2.94304        6.56428
C         -1.76869        4.11163        5.92022
C         -0.40433        4.08918        6.59985
C         -0.10024        2.61230        6.81355
C         -1.43810        1.86630        6.73342
O         -2.92163        3.36493        7.88892
H          0.52066        0.20042       -1.01912
H          0.96356       -1.00841        0.19371
H          1.94867        0.45805       -0.00577
H         -1.43488        1.85355       -0.13316
H         -4.15757        3.69965        3.27142
H         -4.53181        1.49069        4.01608
H         -2.85163        1.21420        4.31266
H         -5.80121        3.29629        5.30683
H         -5.20708        3.84435        6.87341
H         -4.52767        4.51977        5.39104
H         -3.77937        0.40378        6.58738
H         -4.65057        1.52141        7.64955
H         -5.39793        0.95847        6.15568
H         -1.61487        3.96909        4.84961
H         -2.25787        5.07744        6.08101
H         -0.44649        4.61008        7.56336
H          0.36310        4.58342        5.99607
H          0.39486        2.44849        7.77641
H          0.57714        2.24491        6.03424
H         -1.58963        1.27084        7.64101
H         -1.39745        1.17281        5.89035
H         -2.12446        3.51514        8.42362

--Link1--
%chk=JID_9895.chk
%mem=8GB
%nprocshared=4
# B3LYP/6-311++G(d,p) empiricaldispersion=gd3bj scf=xqc pop=npa geom=check

CID_128653161_JID_9895_Energie_neutraal

0 1

--Link1--
%chk=JID_9895.chk
%mem=8GB
%nprocshared=4
# B3LYP/6-311++G(d,p) empiricaldispersion=gd3bj scf=xqc pop=npa geom=check

CID_128653161_JID_9895_Energie_kation

1 2

--Link1--
%chk=JID_9895.chk
%mem=8GB
%nprocshared=4
# B3LYP/6-311++G(d,p) empiricaldispersion=gd3bj scf=xqc pop=npa geom=check

CID_128653161_JID_9895_Energie_anion

-1 2
