%chk=JID_6572.chk
%mem=8GB
%nprocshared=4
# opt freq B3LYP/6-31G(d) empiricaldispersion=gd3bj scf=xqc

CID_117793806_JID_6572_neutraal

0 1
C          0.93304        0.07417        0.00389
C          0.01792       -0.96666        0.66995
C          0.41946       -1.04573        2.15303
C         -1.46706       -0.51699        0.56158
C         -1.99639       -0.10151       -0.82192
C         -1.97142       -1.15805       -1.92023
C         -3.02064       -2.21770       -1.70321
O         -3.83449       -2.54489       -2.55992
O          0.28955       -2.20439       -0.01394
C         -0.36630       -3.38351        0.45207
C          0.53180       -4.24184        1.34813
C         -0.27669       -5.17780        2.28231
C         -1.09526       -6.17947        1.45517
C          0.70529       -5.92166        3.19787
O         -1.13244       -4.30756        3.04357
C         -1.95778       -4.89583        4.03498
H          0.76849        1.07844        0.40818
H          0.78605        0.10219       -1.08119
H          1.98800       -0.18638        0.15219
H          0.33268       -0.07026        2.64401
H         -0.21218       -1.74822        2.70448
H          1.45584       -1.38465        2.26160
H         -2.13362       -1.28296        0.96962
H         -1.60321        0.35498        1.21705
H         -3.03168        0.24000       -0.68728
H         -1.43893        0.77678       -1.16708
H         -2.19150       -0.67398       -2.87872
H         -0.99627       -1.63733       -2.01939
H         -2.99213       -2.74190       -0.73500
H         -1.31533       -3.14514        0.93163
H         -0.61197       -3.96907       -0.44160
H          1.21724       -4.82273        0.71700
H          1.17397       -3.59615        1.95494
H         -0.46291       -6.71679        0.74043
H         -1.57491       -6.92822        2.09470
H         -1.90067       -5.68018        0.90586
H          1.22306       -5.22201        3.86363
H          0.18773       -6.64284        3.83956
H          1.45355       -6.47289        2.61880
H         -2.61947       -5.65434        3.61143
H         -1.35898       -5.31308        4.84775
H         -2.58450       -4.10367        4.45584

--Link1--
%chk=JID_6572.chk
%mem=8GB
%nprocshared=4
# B3LYP/6-311++G(d,p) empiricaldispersion=gd3bj scf=xqc pop=npa geom=check

CID_117793806_JID_6572_Energie_neutraal

0 1

--Link1--
%chk=JID_6572.chk
%mem=8GB
%nprocshared=4
# B3LYP/6-311++G(d,p) empiricaldispersion=gd3bj scf=xqc pop=npa geom=check

CID_117793806_JID_6572_Energie_kation

1 2

--Link1--
%chk=JID_6572.chk
%mem=8GB
%nprocshared=4
# B3LYP/6-311++G(d,p) empiricaldispersion=gd3bj scf=xqc pop=npa geom=check

CID_117793806_JID_6572_Energie_anion

-1 2
