%chk=JID_7339.chk
%mem=8GB
%nprocshared=4
# opt freq B3LYP/6-31G(d) empiricaldispersion=gd3bj scf=xqc

CID_86888780_JID_7339_neutraal

0 1
C          1.00074        0.06585       -0.07526
C          0.38479       -0.20813        1.29287
C         -0.01495        1.06420        1.96264
C         -1.09287        1.91948        1.83985
C         -0.88461        2.96400        2.77201
C          0.30365        2.68301        3.40311
O          0.83930        1.53367        2.91911
N         -0.78397       -1.06374        1.16131
C         -1.38771       -1.83011        2.10996
O         -2.46657       -2.35798        1.83506
C         -0.72330       -2.05130        3.45515
C         -0.21993       -3.48923        3.60418
C          1.06923       -3.78958        2.82214
C          2.40323       -3.71819        3.61711
C          2.47425       -4.84566        4.66357
C          3.56407       -3.91313        2.62060
C          2.59145       -2.36729        4.32236
H          0.29350        0.57112       -0.74358
H          1.29843       -0.87092       -0.55923
H          1.88921        0.70083        0.01278
H          1.12823       -0.72863        1.90211
H         -1.92884        1.79787        1.16484
H         -1.52271        3.81532        2.96317
H          0.87439        3.17466        4.17869
H         -1.36459       -0.94208        0.34137
H          0.06409       -1.32598        3.65739
H         -1.49814       -1.86470        4.20977
H         -0.09198       -3.71259        4.66766
H         -1.00097       -4.17182        3.24472
H          0.97742       -4.80833        2.41960
H          1.12998       -3.13849        1.94251
H          2.32764       -5.82691        4.19847
H          3.45095       -4.85918        5.16119
H          1.71624       -4.72840        5.44410
H          3.57098       -3.12196        1.86216
H          4.53413       -3.89223        3.13014
H          3.48242       -4.87425        2.10047
H          2.54889       -1.53778        3.60958
H          1.82820       -2.19949        5.08896
H          3.56565       -2.31789        4.82276

--Link1--
%chk=JID_7339.chk
%mem=8GB
%nprocshared=4
# B3LYP/6-311++G(d,p) empiricaldispersion=gd3bj scf=xqc pop=npa geom=check

CID_86888780_JID_7339_Energie_neutraal

0 1

--Link1--
%chk=JID_7339.chk
%mem=8GB
%nprocshared=4
# B3LYP/6-311++G(d,p) empiricaldispersion=gd3bj scf=xqc pop=npa geom=check

CID_86888780_JID_7339_Energie_kation

1 2

--Link1--
%chk=JID_7339.chk
%mem=8GB
%nprocshared=4
# B3LYP/6-311++G(d,p) empiricaldispersion=gd3bj scf=xqc pop=npa geom=check

CID_86888780_JID_7339_Energie_anion

-1 2
