%chk=JID_8327.chk
%mem=8GB
%nprocshared=4
# opt freq B3LYP/6-31G(d) empiricaldispersion=gd3bj scf=xqc

CID_43382979_JID_8327_neutraal

0 1
C          0.96934        0.09002        0.03092
C          0.31810        0.35241        1.38029
C          1.09876        1.33854        2.25591
N          0.82407        2.72793        1.86817
C         -0.00478        3.42320        2.78524
C         -1.34614        3.63812        2.42401
C         -2.21265        4.35240        3.27381
C         -1.71257        4.84571        4.47792
C         -0.38097        4.63781        4.87124
C          0.46024        3.88363        4.04050
N          1.82726        3.78476        4.38572
S         -2.96234        5.70143        5.29749
C         -4.04560        5.34553        4.01573
N         -3.54723        4.63946        3.02633
C         -5.44840        5.83931        4.07179
C          1.79367        3.60632        1.17390
C          3.15222        2.96511        0.89856
C          1.17292        4.08566       -0.14393
H          0.98623        0.99009       -0.58681
H          0.40796       -0.67593       -0.51381
H          1.99618       -0.26869        0.15271
H         -0.71159        0.69687        1.23026
H          0.25773       -0.60527        1.91183
H          0.78841        1.16104        3.29508
H          2.16484        1.09620        2.23728
H         -1.72068        3.27024        1.47428
H         -0.01262        5.06054        5.80009
H          1.98944        3.73394        5.38537
H          2.27712        3.03474        3.87016
H         -5.47481        6.93310        4.03634
H         -6.02177        5.46024        3.21981
H         -5.94613        5.50470        4.98751
H          1.99563        4.50420        1.77288
H          3.06822        2.07610        0.26712
H          3.81153        3.67184        0.38208
H          3.65261        2.68306        1.83063
H          0.24283        4.63580        0.03351
H          1.85615        4.75698       -0.67510
H          0.93827        3.24844       -0.80781

--Link1--
%chk=JID_8327.chk
%mem=8GB
%nprocshared=4
# B3LYP/6-311++G(d,p) empiricaldispersion=gd3bj scf=xqc pop=npa geom=check

CID_43382979_JID_8327_Energie_neutraal

0 1

--Link1--
%chk=JID_8327.chk
%mem=8GB
%nprocshared=4
# B3LYP/6-311++G(d,p) empiricaldispersion=gd3bj scf=xqc pop=npa geom=check

CID_43382979_JID_8327_Energie_kation

1 2

--Link1--
%chk=JID_8327.chk
%mem=8GB
%nprocshared=4
# B3LYP/6-311++G(d,p) empiricaldispersion=gd3bj scf=xqc pop=npa geom=check

CID_43382979_JID_8327_Energie_anion

-1 2
