%chk=JID_5176.chk
%mem=8GB
%nprocshared=4
# opt freq B3LYP/6-31G(d) empiricaldispersion=gd3bj scf=xqc

CID_115102885_JID_5176_neutraal

0 1
C         -1.10600       -0.72000       -0.20700
C          0.15131       -1.24405        0.45339
O          0.97807       -0.10806        0.74755
C          0.19137        1.08194        0.56136
C         -1.26516        0.63354        0.46285
N         -2.23010        1.51411       -0.20524
C         -1.81317        2.33006       -1.35399
C         -2.87847        3.33409       -1.80737
O         -4.08073        2.61724       -2.07722
C         -4.57584        2.02008       -0.88923
C         -3.58533        1.20036       -0.04479
O         -3.98574        0.36338        0.76393
C         -2.33435        4.09270       -3.01612
O         -1.19771        4.52965       -3.12790
O         -3.23320        4.29569       -3.99815
H         -0.94230       -0.60102       -1.28487
H         -1.96105       -1.38802       -0.07017
H         -0.07741       -1.74346        1.40090
H          0.69987       -1.94249       -0.18477
H          0.56259        1.55197       -0.35321
H          0.36050        1.77012        1.39469
H         -1.63167        0.45929        1.48444
H         -1.57559        1.63524       -2.16844
H         -0.90682        2.87772       -1.08084
H         -3.07921        4.08180       -1.02908
H         -5.38980        1.34975       -1.18423
H         -4.99961        2.80038       -0.24643
H         -2.74625        4.78144       -4.69500

--Link1--
%chk=JID_5176.chk
%mem=8GB
%nprocshared=4
# B3LYP/6-311++G(d,p) empiricaldispersion=gd3bj scf=xqc pop=npa geom=check

CID_115102885_JID_5176_Energie_neutraal

0 1

--Link1--
%chk=JID_5176.chk
%mem=8GB
%nprocshared=4
# B3LYP/6-311++G(d,p) empiricaldispersion=gd3bj scf=xqc pop=npa geom=check

CID_115102885_JID_5176_Energie_kation

1 2

--Link1--
%chk=JID_5176.chk
%mem=8GB
%nprocshared=4
# B3LYP/6-311++G(d,p) empiricaldispersion=gd3bj scf=xqc pop=npa geom=check

CID_115102885_JID_5176_Energie_anion

-1 2
