%chk=JID_8276.chk
%mem=8GB
%nprocshared=4
# opt freq B3LYP/6-31G(d) empiricaldispersion=gd3bj scf=xqc

CID_107159614_JID_8276_neutraal

0 1
C          1.04478        0.07156        0.05361
C          1.37353       -1.38554       -0.23010
N          1.81324       -2.07826        0.97573
C          0.92187       -2.43114        1.99095
C         -0.45453       -2.60384        1.80529
C         -1.29696       -3.04842        2.83841
C         -0.68487       -3.26134        4.07290
N          0.64371       -3.16172        4.30651
C          1.40355       -2.77373        3.25681
N         -2.67779       -3.11578        2.59935
C         -3.52394       -3.85632        3.53548
C         -5.00905       -3.87737        3.09936
C         -5.32547       -4.62310        1.78443
C         -5.46743       -6.17463        1.74024
C         -6.76640       -6.65384        2.41506
C         -5.54657       -6.58446        0.25039
C         -4.27334       -6.90452        2.36590
O         -5.83947       -4.33699        4.16389
H          0.19713        0.16752        0.73927
H          0.78725        0.58915       -0.87572
H          1.89992        0.58586        0.50490
H          0.53272       -1.89511       -0.71179
H          2.19837       -1.42072       -0.95130
H          2.69075       -1.71201        1.33917
H         -0.90009       -2.39094        0.83970
H         -1.25634       -3.54133        4.95133
H          2.46753       -2.73024        3.47342
H         -2.86593       -3.31624        1.62048
H         -3.14563       -4.87219        3.67457
H         -3.48397       -3.37682        4.52212
H         -5.29878       -2.83095        2.93575
H         -6.28347       -4.21637        1.42696
H         -4.59371       -4.31441        1.02818
H         -7.63642       -6.10688        2.03528
H         -6.93843       -7.71926        2.22043
H         -6.74149       -6.53668        3.50097
H         -4.63416       -6.30206       -0.28721
H         -5.67192       -7.66774        0.13970
H         -6.39352       -6.09984       -0.24864
H         -3.32664       -6.54967        1.94435
H         -4.24276       -6.77430        3.45159
H         -4.33035       -7.98374        2.18065
H         -5.44925       -5.14734        4.53190

--Link1--
%chk=JID_8276.chk
%mem=8GB
%nprocshared=4
# B3LYP/6-311++G(d,p) empiricaldispersion=gd3bj scf=xqc pop=npa geom=check

CID_107159614_JID_8276_Energie_neutraal

0 1

--Link1--
%chk=JID_8276.chk
%mem=8GB
%nprocshared=4
# B3LYP/6-311++G(d,p) empiricaldispersion=gd3bj scf=xqc pop=npa geom=check

CID_107159614_JID_8276_Energie_kation

1 2

--Link1--
%chk=JID_8276.chk
%mem=8GB
%nprocshared=4
# B3LYP/6-311++G(d,p) empiricaldispersion=gd3bj scf=xqc pop=npa geom=check

CID_107159614_JID_8276_Energie_anion

-1 2
