%chk=JID_5903.chk
%mem=8GB
%nprocshared=4
# opt freq B3LYP/6-31G(d) empiricaldispersion=gd3bj scf=xqc

CID_152634434_JID_5903_neutraal

0 1
C          0.95730        0.02394        0.08720
C          0.65175        1.38683       -0.52460
C          1.18762        1.57898       -1.96947
C          0.73773        0.41994       -2.90417
C         -0.76955        0.31058       -3.10475
N          0.80825        2.89304       -2.56755
C          1.00961        4.06445       -1.70260
C          0.41380        5.36859       -2.27071
C          1.14718        5.92829       -3.48876
C          0.77748        5.28933       -4.83011
C          0.56955        3.77706       -4.82018
N          1.39860        3.08587       -3.83590
N          2.76651        3.01750       -3.91811
N          3.28602        3.21598       -5.03392
N          3.76899        3.39891       -6.05158
H          0.37984       -0.77332       -0.38909
H          0.69310        0.02478        1.14993
H          2.02213       -0.21497        0.00421
H         -0.42977        1.56332       -0.48745
H          1.11901        2.12652        0.13611
H          2.28306        1.52868       -1.89542
H          1.20959        0.52604       -3.88893
H          1.11508       -0.53458       -2.51966
H         -1.18701        1.22539       -3.53517
H         -0.99378       -0.51177       -3.79210
H         -1.28754        0.10373       -2.16410
H          0.48720        3.91633       -0.75233
H          2.07237        4.20479       -1.46867
H          0.47067        6.12161       -1.47378
H         -0.65268        5.23778       -2.49207
H          2.22996        5.85046       -3.32988
H          0.93509        7.00238       -3.56438
H          1.56573        5.54269       -5.55001
H         -0.13514        5.75820       -5.21907
H          0.76147        3.35118       -5.81146
H         -0.48115        3.55171       -4.59602

--Link1--
%chk=JID_5903.chk
%mem=8GB
%nprocshared=4
# B3LYP/6-311++G(d,p) empiricaldispersion=gd3bj scf=xqc pop=npa geom=check

CID_152634434_JID_5903_Energie_neutraal

0 1

--Link1--
%chk=JID_5903.chk
%mem=8GB
%nprocshared=4
# B3LYP/6-311++G(d,p) empiricaldispersion=gd3bj scf=xqc pop=npa geom=check

CID_152634434_JID_5903_Energie_kation

1 2

--Link1--
%chk=JID_5903.chk
%mem=8GB
%nprocshared=4
# B3LYP/6-311++G(d,p) empiricaldispersion=gd3bj scf=xqc pop=npa geom=check

CID_152634434_JID_5903_Energie_anion

-1 2
