%chk=JID_7702.chk
%mem=8GB
%nprocshared=4
# opt freq B3LYP/6-31G(d) empiricaldispersion=gd3bj scf=xqc

CID_113405011_JID_7702_neutraal

0 1
C          1.05037       -0.00308       -0.08633
C          0.65956        1.19764        0.72425
C          1.17839        2.47282        0.45901
C          0.68178        3.57068        1.21138
N         -0.15715        3.42041        2.25492
C         -0.58894        2.17138        2.52362
C         -0.22559        1.05055        1.79569
N          1.16643        4.85602        0.86515
C          0.51216        5.95328        1.58563
C          1.29757        7.24749        1.35350
O          0.92283        8.10343        0.54981
N          2.46100        7.45167        2.04743
C          3.19884        6.48288        2.84698
C          4.21882        5.67978        2.03205
O          5.35219        6.48832        1.69593
C          5.32135        6.95007        0.35205
N          2.00834        2.71273       -0.66744
H          0.82848        0.16154       -1.14571
H          0.49946       -0.89632        0.22726
H          2.11817       -0.21146        0.03507
H         -1.27014        2.09062        3.36619
H         -0.63467        0.08134        2.06208
H          1.01828        4.95362       -0.14044
H         -0.50846        6.10119        1.21213
H          0.44986        5.78480        2.66644
H          2.93603        8.31256        1.80618
H          3.71337        7.05968        3.62276
H          2.49893        5.80108        3.33539
H          4.59835        4.86855        2.66259
H          3.78048        5.22305        1.13926
H          5.32973        6.10457       -0.34268
H          4.44542        7.57733        0.17052
H          6.21888        7.54946        0.17702
H          2.56398        3.55245       -0.50609
H          2.59614        1.91944       -0.90013

--Link1--
%chk=JID_7702.chk
%mem=8GB
%nprocshared=4
# B3LYP/6-311++G(d,p) empiricaldispersion=gd3bj scf=xqc pop=npa geom=check

CID_113405011_JID_7702_Energie_neutraal

0 1

--Link1--
%chk=JID_7702.chk
%mem=8GB
%nprocshared=4
# B3LYP/6-311++G(d,p) empiricaldispersion=gd3bj scf=xqc pop=npa geom=check

CID_113405011_JID_7702_Energie_kation

1 2

--Link1--
%chk=JID_7702.chk
%mem=8GB
%nprocshared=4
# B3LYP/6-311++G(d,p) empiricaldispersion=gd3bj scf=xqc pop=npa geom=check

CID_113405011_JID_7702_Energie_anion

-1 2
