%chk=JID_2118.chk
%mem=8GB
%nprocshared=4
# opt freq B3LYP/6-31G(d) empiricaldispersion=gd3bj scf=xqc

CID_59623195_JID_2118_neutraal

0 1
C          0.93653       -0.07715        0.00447
C          0.99481        0.40044       -1.44110
C          0.82256       -0.70031       -2.52237
C          0.44946        0.08531       -3.80720
C          1.77336        0.81994       -4.14495
C          1.76756        2.30219       -3.79417
N          2.13950        2.41135       -2.37327
C          2.34270        1.04684       -1.86872
C          2.75354        0.22644       -3.11577
C          2.25992       -1.19984       -2.84784
C          3.01336       -1.90048       -1.70859
C          2.34383       -2.13637       -4.06929
H         -0.04609       -0.51302        0.21535
H          1.07740        0.76897        0.68574
H          1.68285       -0.82779        0.25974
H          0.17495        1.12857       -1.52410
H          0.09897       -1.47709       -2.26451
H         -0.39582        0.76685       -3.66301
H          0.16471       -0.59727       -4.61463
H          2.06722        0.64499       -5.18440
H          0.79893        2.77490       -3.98293
H          2.51793        2.82874       -4.39550
H          3.02246        2.91930       -2.31239
H          3.08696        1.02559       -1.06689
H          3.80557        0.33565       -3.39434
H          2.39799       -2.69087       -1.26579
H          3.93434       -2.36812       -2.07743
H          3.34177       -1.22627       -0.91574
H          1.93506       -1.71860       -4.99187
H          3.38746       -2.38757       -4.29274
H          1.80846       -3.07128       -3.86877

--Link1--
%chk=JID_2118.chk
%mem=8GB
%nprocshared=4
# B3LYP/6-311++G(d,p) empiricaldispersion=gd3bj scf=xqc pop=npa geom=check

CID_59623195_JID_2118_Energie_neutraal

0 1

--Link1--
%chk=JID_2118.chk
%mem=8GB
%nprocshared=4
# B3LYP/6-311++G(d,p) empiricaldispersion=gd3bj scf=xqc pop=npa geom=check

CID_59623195_JID_2118_Energie_kation

1 2

--Link1--
%chk=JID_2118.chk
%mem=8GB
%nprocshared=4
# B3LYP/6-311++G(d,p) empiricaldispersion=gd3bj scf=xqc pop=npa geom=check

CID_59623195_JID_2118_Energie_anion

-1 2
