%chk=JID_10726.chk
%mem=8GB
%nprocshared=4
# opt freq B3LYP/6-31G(d) empiricaldispersion=gd3bj scf=xqc

CID_17359292_JID_10726_neutraal

0 1
C          2.49200        0.00400       -0.01400
C          1.00664       -0.10995        0.19601
C          0.36854       -1.32098        0.52143
C         -1.01586       -1.38689        0.72783
C         -1.78209       -0.22482        0.62400
C         -1.18419        1.00214        0.29851
C          0.20747        1.04599        0.09118
C         -2.01595        2.19316        0.18894
N         -3.21104        2.43289        0.68319
N         -3.56830        3.68910        0.24257
C         -2.58188        4.13179       -0.51694
O         -1.54670        3.22237       -0.58198
C         -2.57841        5.38255       -1.22093
C         -1.66495        5.79609       -2.17323
C         -1.96398        7.09065       -2.69282
C         -3.09025        7.62889       -2.11289
S         -3.78248        6.57421       -0.95891
N          1.12270       -2.56401        0.65051
O          0.69019       -3.55003        0.03923
O          2.12714       -2.55278        1.37475
H          3.01607       -0.04283        0.94542
H          2.85483       -0.79014       -0.67435
H          2.75208        0.95482       -0.49201
H         -1.50225       -2.32960        0.97234
H         -2.85799       -0.28183        0.79124
H          0.68025        1.99897       -0.14791
H         -0.82404        5.19327       -2.49599
H         -1.38408        7.59948       -3.45357
H         -3.54523        8.58995       -2.31181

--Link1--
%chk=JID_10726.chk
%mem=8GB
%nprocshared=4
# B3LYP/6-311++G(d,p) empiricaldispersion=gd3bj scf=xqc pop=npa geom=check

CID_17359292_JID_10726_Energie_neutraal

0 1

--Link1--
%chk=JID_10726.chk
%mem=8GB
%nprocshared=4
# B3LYP/6-311++G(d,p) empiricaldispersion=gd3bj scf=xqc pop=npa geom=check

CID_17359292_JID_10726_Energie_kation

1 2

--Link1--
%chk=JID_10726.chk
%mem=8GB
%nprocshared=4
# B3LYP/6-311++G(d,p) empiricaldispersion=gd3bj scf=xqc pop=npa geom=check

CID_17359292_JID_10726_Energie_anion

-1 2
