%chk=JID_6093.chk
%mem=8GB
%nprocshared=4
# opt freq B3LYP/6-31G(d) empiricaldispersion=gd3bj scf=xqc

CID_80112218_JID_6093_neutraal

0 1
C          0.94142        0.00483        0.08090
C          1.26999       -1.48140        0.06845
N          1.38712       -2.02888        1.42715
C          0.16401       -2.60805        1.99026
C         -0.24991       -3.94857        1.36207
O          0.73231       -4.96131        1.58809
C          1.42009       -5.32372        0.39617
C          2.61642       -1.88068        2.05574
O          3.55681       -1.37144        1.42434
C          2.87742       -2.20936        3.53900
C          2.48669       -1.03328        4.46878
C          1.01795       -0.77933        4.85489
C          0.46236       -1.80627        5.84233
C          0.90101        0.61434        5.49226
C          2.58152       -3.61791        4.06180
N          3.39521       -4.64387        3.40550
H         -0.00807        0.19316        0.59223
H          0.85964        0.38403       -0.94229
H          1.71687        0.57962        0.59729
H          0.49560       -2.02432       -0.48163
H          2.20722       -1.64134       -0.47678
H          0.27133       -2.74049        3.05946
H         -0.64197       -1.87867        1.84804
H         -1.16890       -4.28589        1.85419
H         -0.48357       -3.84420        0.29662
H          0.71957       -5.72884       -0.34045
H          1.95357       -4.46511       -0.02034
H          2.14872       -6.10032        0.64354
H          3.98160       -2.16904        3.58078
H          3.06887       -1.13425        5.39597
H          2.86537       -0.11807        3.99085
H          0.39528       -0.76116        3.95710
H          1.10524       -1.89759        6.72446
H         -0.53594       -1.51291        6.18612
H          0.35903       -2.79503        5.39448
H          1.23945        1.39089        4.79796
H         -0.13896        0.83755        5.75431
H          1.50396        0.68671        6.40410
H          2.81682       -3.65603        5.13185
H          1.54051       -3.91381        3.96340
H          3.13755       -5.55756        3.77886
H          3.13541       -4.68149        2.41871

--Link1--
%chk=JID_6093.chk
%mem=8GB
%nprocshared=4
# B3LYP/6-311++G(d,p) empiricaldispersion=gd3bj scf=xqc pop=npa geom=check

CID_80112218_JID_6093_Energie_neutraal

0 1

--Link1--
%chk=JID_6093.chk
%mem=8GB
%nprocshared=4
# B3LYP/6-311++G(d,p) empiricaldispersion=gd3bj scf=xqc pop=npa geom=check

CID_80112218_JID_6093_Energie_kation

1 2

--Link1--
%chk=JID_6093.chk
%mem=8GB
%nprocshared=4
# B3LYP/6-311++G(d,p) empiricaldispersion=gd3bj scf=xqc pop=npa geom=check

CID_80112218_JID_6093_Energie_anion

-1 2
