%chk=JID_9274.chk
%mem=8GB
%nprocshared=4
# opt freq B3LYP/6-31G(d) empiricaldispersion=gd3bj scf=xqc

CID_107389729_JID_9274_neutraal

0 1
C          1.03975        0.07946        0.04590
C          0.79766       -1.35490        0.49364
O          1.75876       -1.74461        1.47809
C          2.99810       -2.04180        0.94547
N          3.03783       -2.70791       -0.21803
C          4.26396       -2.96589       -0.67208
N          5.41243       -2.59228       -0.09774
C          5.33450       -1.88576        1.04249
C          4.11426       -1.64957        1.66654
C          3.98722       -0.92180        2.96813
N          6.52177       -1.42457        1.64841
C          7.73144       -1.46639        0.80935
C          7.89681       -0.25678       -0.12615
C          8.09729        1.06604        0.57650
O          7.78731        2.02740       -0.43400
C          6.79410        1.38841       -1.25188
O          6.76581       -0.01475       -0.96860
C          5.42146        1.96931       -0.93237
C          7.15754        1.59837       -2.71544
H          1.07857        0.75085        0.91008
H          0.24291        0.41316       -0.62498
H          1.99542        0.17648       -0.47911
H         -0.18257       -1.40683        0.98074
H          0.75221       -2.04639       -0.35572
H          4.34068       -3.52439       -1.59788
H          3.98108        0.15885        2.79433
H          3.06927       -1.19546        3.49867
H          4.81117       -1.16984        3.64520
H          6.35418       -0.49886        2.02568
H          8.59368       -1.49467        1.48656
H          7.78083       -2.39797        0.23305
H          8.75092       -0.44308       -0.79015
H          9.11966        1.21026        0.93597
H          7.40403        1.22663        1.40758
H          4.63856        1.49085       -1.53051
H          5.16743        1.80209        0.12077
H          5.39690        3.05032       -1.10418
H          8.14648        1.17682       -2.92909
H          6.44333        1.09890       -3.37845
H          7.19905        2.66332       -2.96663

--Link1--
%chk=JID_9274.chk
%mem=8GB
%nprocshared=4
# B3LYP/6-311++G(d,p) empiricaldispersion=gd3bj scf=xqc pop=npa geom=check

CID_107389729_JID_9274_Energie_neutraal

0 1

--Link1--
%chk=JID_9274.chk
%mem=8GB
%nprocshared=4
# B3LYP/6-311++G(d,p) empiricaldispersion=gd3bj scf=xqc pop=npa geom=check

CID_107389729_JID_9274_Energie_kation

1 2

--Link1--
%chk=JID_9274.chk
%mem=8GB
%nprocshared=4
# B3LYP/6-311++G(d,p) empiricaldispersion=gd3bj scf=xqc pop=npa geom=check

CID_107389729_JID_9274_Energie_anion

-1 2
