%chk=JID_7270.chk
%mem=8GB
%nprocshared=4
# opt freq B3LYP/6-31G(d) empiricaldispersion=gd3bj scf=xqc

CID_64488392_JID_7270_neutraal

0 1
C          1.03949        0.06900        0.06066
C          0.29253        0.31383       -1.25749
C          0.44554       -0.91182       -2.14203
N         -0.28144       -2.00858       -2.01362
C          0.12011       -2.94168       -2.94841
C          1.14400       -2.54853       -3.78183
S          1.62755       -0.95158       -3.39261
N         -1.10882        0.60976       -0.90193
C         -1.83773        1.36031       -1.83816
C         -3.20002        1.61504       -1.63463
C         -3.89765        2.41800       -2.54935
C         -3.25112        2.93395       -3.66547
C         -1.88585        2.68832       -3.74671
N         -1.18408        1.91199       -2.88405
N         -3.89414        3.84928       -4.50187
C         -3.90075        1.09010       -0.50312
N         -4.50193        0.66053        0.39306
H          0.62572       -0.78833        0.60514
H          0.96478        0.94371        0.71662
H          2.10230       -0.12978       -0.11681
H          0.77296        1.18559       -1.72002
H         -0.37176       -3.90646       -2.97848
H          1.61648       -3.10632       -4.57717
H         -1.58706       -0.27451       -0.71844
H         -4.94723        2.64489       -2.37625
H         -1.28656        3.13079       -4.53784
H         -4.90288        3.73897       -4.55419
H         -3.47352        3.94962       -5.42164

--Link1--
%chk=JID_7270.chk
%mem=8GB
%nprocshared=4
# B3LYP/6-311++G(d,p) empiricaldispersion=gd3bj scf=xqc pop=npa geom=check

CID_64488392_JID_7270_Energie_neutraal

0 1

--Link1--
%chk=JID_7270.chk
%mem=8GB
%nprocshared=4
# B3LYP/6-311++G(d,p) empiricaldispersion=gd3bj scf=xqc pop=npa geom=check

CID_64488392_JID_7270_Energie_kation

1 2

--Link1--
%chk=JID_7270.chk
%mem=8GB
%nprocshared=4
# B3LYP/6-311++G(d,p) empiricaldispersion=gd3bj scf=xqc pop=npa geom=check

CID_64488392_JID_7270_Energie_anion

-1 2
