%chk=JID_5014.chk
%mem=8GB
%nprocshared=4
# opt freq B3LYP/6-31G(d) empiricaldispersion=gd3bj scf=xqc

CID_104168665_JID_5014_neutraal

0 1
C          1.03972       -0.04872        0.07777
C          0.62363       -0.99999        1.19727
C          1.05271       -0.58758        2.62091
N          0.65073        0.72691        3.08999
C         -0.23473        0.96062        4.10884
C         -0.31554        2.32143        4.29894
C          0.58487        2.95149        3.38825
C          1.19692        1.91911        2.69316
C          0.85217        4.42057        3.19716
C         -0.18100        5.24699        2.46656
C         -1.22800        4.64135        1.55813
C         -1.64240        5.27739        2.85666
N          1.06611        5.03286        4.50652
O         -0.74003       -1.41945        1.06435
C         -1.73831       -0.43881        1.29717
H          0.52359        0.91333        0.13078
H          0.78502       -0.48071       -0.89642
H          2.11825        0.13599        0.10100
H          1.18177       -1.92606        1.00397
H          0.66466       -1.31874        3.34048
H          2.14758       -0.60705        2.69270
H         -0.74266        0.14832        4.61254
H         -0.94618        2.81160        5.02840
H          1.97046        1.95739        1.93765
H          1.79185        4.51548        2.63750
H          0.25341        6.18609        2.13331
H         -1.46418        5.16482        0.63845
H         -1.30777        3.56331        1.47737
H         -1.99839        4.62495        3.64407
H         -2.15741        6.23052        2.81238
H          1.27577        6.01896        4.38041
H          0.19385        4.98925        5.02679
H         -1.90376       -0.31707        2.36834
H         -1.50500        0.52032        0.83015
H         -2.67412       -0.80550        0.86506

--Link1--
%chk=JID_5014.chk
%mem=8GB
%nprocshared=4
# B3LYP/6-311++G(d,p) empiricaldispersion=gd3bj scf=xqc pop=npa geom=check

CID_104168665_JID_5014_Energie_neutraal

0 1

--Link1--
%chk=JID_5014.chk
%mem=8GB
%nprocshared=4
# B3LYP/6-311++G(d,p) empiricaldispersion=gd3bj scf=xqc pop=npa geom=check

CID_104168665_JID_5014_Energie_kation

1 2

--Link1--
%chk=JID_5014.chk
%mem=8GB
%nprocshared=4
# B3LYP/6-311++G(d,p) empiricaldispersion=gd3bj scf=xqc pop=npa geom=check

CID_104168665_JID_5014_Energie_anion

-1 2
