%chk=JID_7089.chk
%mem=8GB
%nprocshared=4
# opt freq B3LYP/6-31G(d) empiricaldispersion=gd3bj scf=xqc

CID_60085123_JID_7089_neutraal

0 1
C          1.04870       -0.07465        0.04534
C          0.37903       -0.74586        1.23986
C          1.07067       -0.44476        2.56503
O         -1.03765       -0.48454        1.29194
C         -1.49060        0.78270        1.46982
O         -0.77850        1.76945        1.61300
N         -2.85507        0.76484        1.49232
C         -3.53135        1.85090        1.28218
C         -5.03052        1.73973        1.34132
C         -5.84110        2.66954        0.68068
C         -7.23285        2.56223        0.75242
C         -7.83566        1.52584        1.48091
C         -7.01792        0.59329        2.13326
C         -5.62544        0.69696        2.06110
C         -9.33769        1.41506        1.54769
N         -9.92502        2.56143        2.23090
N         -2.99561        3.09109        1.01482
H          1.09468        1.01259        0.15674
H          0.48824       -0.27968       -0.87281
H          2.07293       -0.43986       -0.08089
H          0.45158       -1.82851        1.07995
H          1.11255        0.62847        2.77244
H          0.52804       -0.91057        3.39435
H          2.09756       -0.82400        2.56189
H         -5.40597        3.46929        0.08832
H         -7.85487        3.29271        0.23777
H         -7.45621       -0.22406        2.70145
H         -5.00895       -0.03808        2.57343
H         -9.73824        1.34445        0.53008
H         -9.63082        0.49710        2.06992
H        -10.92429        2.40443        2.34443
H         -9.53417        2.61769        3.17036
H         -1.99736        3.15618        1.22734
H         -3.50365        3.88238        1.39503

--Link1--
%chk=JID_7089.chk
%mem=8GB
%nprocshared=4
# B3LYP/6-311++G(d,p) empiricaldispersion=gd3bj scf=xqc pop=npa geom=check

CID_60085123_JID_7089_Energie_neutraal

0 1

--Link1--
%chk=JID_7089.chk
%mem=8GB
%nprocshared=4
# B3LYP/6-311++G(d,p) empiricaldispersion=gd3bj scf=xqc pop=npa geom=check

CID_60085123_JID_7089_Energie_kation

1 2

--Link1--
%chk=JID_7089.chk
%mem=8GB
%nprocshared=4
# B3LYP/6-311++G(d,p) empiricaldispersion=gd3bj scf=xqc pop=npa geom=check

CID_60085123_JID_7089_Energie_anion

-1 2
