%chk=JID_8825.chk
%mem=8GB
%nprocshared=4
# opt freq B3LYP/6-31G(d) empiricaldispersion=gd3bj scf=xqc

CID_129120214_JID_8825_neutraal

0 1
C          0.95777        0.07065       -0.05679
O          1.26807       -0.74553        1.07013
N          1.26765       -2.09977        0.67268
C          2.50788       -2.68102        0.61261
C          2.62850       -4.00675        0.42660
C          1.41774       -4.80389        0.29840
C          0.20221       -4.24807        0.41579
C          0.06738       -2.78495        0.67475
O         -1.04762       -2.30298        0.85220
C          3.96151       -4.70269        0.35528
O          4.09442       -5.63181        1.44235
N          4.78780       -5.02447        2.51555
C          3.97250       -4.58373        3.53159
C          4.50042       -4.13900        4.67831
C          5.93203       -4.14702        4.85258
C          6.74034       -4.65013        3.90773
C          6.16192       -5.20285        2.63437
S          7.14909       -5.93077        1.47662
H          1.02465        1.11706        0.25332
H         -0.05992       -0.12033       -0.40980
H          1.67650       -0.09753       -0.86529
H          3.35879       -2.01951        0.73437
H          1.51789       -5.87200        0.12439
H         -0.71615       -4.81595        0.34550
H          4.02502       -5.27846       -0.57536
H          4.79215       -3.98551        0.33709
H          2.90213       -4.61573        3.36105
H          3.87238       -3.78546        5.48920
H          6.33709       -3.75025        5.77841
H          7.81611       -4.67843        4.03861

--Link1--
%chk=JID_8825.chk
%mem=8GB
%nprocshared=4
# B3LYP/6-311++G(d,p) empiricaldispersion=gd3bj scf=xqc pop=npa geom=check

CID_129120214_JID_8825_Energie_neutraal

0 1

--Link1--
%chk=JID_8825.chk
%mem=8GB
%nprocshared=4
# B3LYP/6-311++G(d,p) empiricaldispersion=gd3bj scf=xqc pop=npa geom=check

CID_129120214_JID_8825_Energie_kation

1 2

--Link1--
%chk=JID_8825.chk
%mem=8GB
%nprocshared=4
# B3LYP/6-311++G(d,p) empiricaldispersion=gd3bj scf=xqc pop=npa geom=check

CID_129120214_JID_8825_Energie_anion

-1 2
