%chk=JID_3367.chk
%mem=8GB
%nprocshared=4
# opt freq B3LYP/6-31G(d) empiricaldispersion=gd3bj scf=xqc

CID_61177862_JID_3367_neutraal

0 1
C          2.60700        0.96000       -0.00600
C          1.29631        0.22759        0.03362
C          0.10338        0.95319        0.06448
C         -1.10597        0.27016        0.11023
N         -1.18425       -1.08044        0.13236
C         -0.04317       -1.80802        0.09648
C          1.21533       -1.17758        0.06008
C          2.45360       -1.98513        0.06432
S          3.01743       -2.84535       -1.25194
N          3.15869       -1.98671        1.23991
N         -0.13534       -3.21170        0.18818
C         -1.48445       -3.74282        0.09488
C         -2.39815        1.03033        0.14398
H          2.46088        2.02365       -0.22402
H          3.11434        0.88420        0.96054
H          3.25466        0.56177       -0.79305
H          0.11170        2.03946        0.05166
H          2.79259       -1.56840        2.08711
H          3.97589       -2.58012        1.32269
H          0.48525       -3.62883       -0.50519
H         -1.95572       -3.48167       -0.85908
H         -1.44050       -4.83513        0.15371
H         -2.11147       -3.39802        0.92431
H         -2.44036        1.66454        1.03490
H         -2.49206        1.65635       -0.74880
H         -3.25237        0.34613        0.17159

--Link1--
%chk=JID_3367.chk
%mem=8GB
%nprocshared=4
# B3LYP/6-311++G(d,p) empiricaldispersion=gd3bj scf=xqc pop=npa geom=check

CID_61177862_JID_3367_Energie_neutraal

0 1

--Link1--
%chk=JID_3367.chk
%mem=8GB
%nprocshared=4
# B3LYP/6-311++G(d,p) empiricaldispersion=gd3bj scf=xqc pop=npa geom=check

CID_61177862_JID_3367_Energie_kation

1 2

--Link1--
%chk=JID_3367.chk
%mem=8GB
%nprocshared=4
# B3LYP/6-311++G(d,p) empiricaldispersion=gd3bj scf=xqc pop=npa geom=check

CID_61177862_JID_3367_Energie_anion

-1 2
