%chk=JID_5717.chk
%mem=8GB
%nprocshared=4
# opt freq B3LYP/6-31G(d) empiricaldispersion=gd3bj scf=xqc

CID_137464729_JID_5717_neutraal

0 1
C          0.93784        0.04950       -0.06071
C          0.55700        1.33496        0.59498
C         -0.70730        1.77216        0.69731
C         -1.04854        3.06248        1.33398
O         -1.67032        3.91149        0.70270
N         -0.72425        3.26653        2.64098
C         -0.17688        2.33187        3.60961
C          1.24833        2.70970        4.01339
C          1.34370        3.94599        4.91616
C          0.71615        3.79873        6.31047
C          1.27223        2.65341        7.16802
C          2.73062        2.90762        7.56948
O          3.11752        3.38728        8.62395
O          3.61501        2.52686        6.62727
N          0.44133        2.53871        8.39226
H          0.06890       -0.48874       -0.45239
H          1.44526       -0.59951        0.65951
H          1.62261        0.24311       -0.89194
H          1.37186        1.93212        0.99559
H         -1.54241        1.24585        0.25016
H         -1.04164        4.16615        2.98139
H         -0.85127        2.32940        4.47064
H         -0.18867        1.31703        3.20403
H          1.71786        1.85326        4.50782
H          1.84296        2.90291        3.11235
H          2.40028        4.21719        5.02467
H          0.87099        4.79868        4.41315
H          0.85960        4.75097        6.83957
H         -0.36846        3.67904        6.19678
H          1.20882        1.68935        6.65522
H          4.48815        2.74265        7.01847
H          0.82567        1.79229        8.97479
H          0.58229        3.38627        8.94940

--Link1--
%chk=JID_5717.chk
%mem=8GB
%nprocshared=4
# B3LYP/6-311++G(d,p) empiricaldispersion=gd3bj scf=xqc pop=npa geom=check

CID_137464729_JID_5717_Energie_neutraal

0 1

--Link1--
%chk=JID_5717.chk
%mem=8GB
%nprocshared=4
# B3LYP/6-311++G(d,p) empiricaldispersion=gd3bj scf=xqc pop=npa geom=check

CID_137464729_JID_5717_Energie_kation

1 2

--Link1--
%chk=JID_5717.chk
%mem=8GB
%nprocshared=4
# B3LYP/6-311++G(d,p) empiricaldispersion=gd3bj scf=xqc pop=npa geom=check

CID_137464729_JID_5717_Energie_anion

-1 2
