%chk=JID_6335.chk
%mem=8GB
%nprocshared=4
# opt=(cartesian,calcfc) freq B3LYP/6-31G(d) empiricaldispersion=gd3bj scf=xqc

CID_149692402_JID_6335_neutraal

0 1
6	-4.907379	 -1.380363	 1.315538
6	-4.895660	 -1.087573	 -0.188277
6	-3.719556	 -0.216329	 -0.644791
6	-2.362035	 -0.872720	 -0.441316
8	-1.367355	 0.008731	 -0.966144
6	-0.051748	 -0.360504	 -0.651401
6	0.861542	 0.399381	 -1.616427
6	2.332274	 0.165380	 -1.488898
6	2.970670	 -0.395709	 -0.417999
7	4.370086	 -0.557107	 -0.468187
7	4.895097	 -1.058741	 0.514998
7	5.528627	 -1.525201	 1.388895
8	0.249897	 -0.198396	 0.728218
6	-0.239115	 0.945939	 1.437629
6	0.332569	 2.314314	 1.023955
6	-0.613930	 3.141655	 0.144244
1	-4.044954	 -1.985273	 1.623885
1	-5.811305	 -1.929433	 1.603058
1	-4.881910	 -0.451196	 1.897685
1	-4.888106	 -2.031666	 -0.746479
1	-5.831368	 -0.580719	 -0.463216
1	-3.826294	 0.025752	 -1.711021
1	-3.731539	 0.741310	 -0.103138
1	-2.165239	 -1.063216	 0.619762
1	-2.312332	 -1.835568	 -0.969406
1	0.090363	 -1.440854	 -0.806367
1	0.546374	 0.101283	 -2.626074
1	0.646569	 1.472672	 -1.556843
1	2.949260	 0.471344	 -2.320032
1	2.438776	 -0.711549	 0.461618
1	0.040155	 0.719958	 2.470073
1	-1.335265	 0.972117	 1.390571
1	0.549181	 2.884846	 1.936271
1	1.300522	 2.155253	 0.534645
1	-1.507274	 3.426548	 0.712816
1	-0.955391	 2.578233	 -0.727377
1	-0.133021	 4.064003	 -0.200506

--Link1--
%chk=JID_6335.chk
%mem=8GB
%nprocshared=4
# B3LYP/6-311++G(d,p) empiricaldispersion=gd3bj scf=xqc pop=npa geom=check

CID_149692402_JID_6335_Energie_neutraal

0 1

--Link1--
%chk=JID_6335.chk
%mem=8GB
%nprocshared=4
# B3LYP/6-311++G(d,p) empiricaldispersion=gd3bj scf=xqc pop=npa geom=check

CID_149692402_JID_6335_Energie_kation

1 2

--Link1--
%chk=JID_6335.chk
%mem=8GB
%nprocshared=4
# B3LYP/6-311++G(d,p) empiricaldispersion=gd3bj scf=xqc pop=npa geom=check

CID_149692402_JID_6335_Energie_anion

-1 2
