%chk=JID_7199.chk
%mem=8GB
%nprocshared=4
# opt freq B3LYP/6-31G(d) empiricaldispersion=gd3bj scf=xqc

CID_108355192_JID_7199_neutraal

0 1
C          1.05363       -0.07840       -0.03127
C          0.88199       -1.57653       -0.22297
C          1.22053       -2.39843        1.02471
C          0.34269       -2.13050        2.26489
C         -1.13630       -2.41796        2.00163
N          0.76987       -3.01258        3.36129
C          1.71352       -2.51833        4.25329
N          2.81875       -3.27023        4.41091
C          3.77344       -2.87774        5.29029
C          3.63521       -1.73780        6.06196
C          2.47869       -0.98117        5.89469
C          1.50013       -1.36401        4.98138
N          2.28249        0.22542        6.69835
O          1.25629        0.89012        6.50062
O          3.16173        0.51681        7.52145
N          4.92825       -3.68560        5.47937
N          5.02231       -4.84844        4.66886
H          0.33390        0.31842        0.69056
H          0.89280        0.44301       -0.98034
H          2.06300        0.15942        0.31897
H         -0.13833       -1.78990       -0.55904
H          1.54532       -1.89875       -1.03501
H          1.15210       -3.46150        0.75669
H          2.27289       -2.22358        1.28474
H          0.42866       -1.07646        2.55119
H         -1.28612       -3.44216        1.64269
H         -1.72113       -2.30212        2.92143
H         -1.55200       -1.72871        1.26070
H          1.15013       -3.89471        3.01890
H          4.40015       -1.46747        6.78251
H          0.57738       -0.80594        4.86401
H          5.76851       -3.10254        5.46424
H          4.33406       -5.52762        5.01131
H          4.66680       -4.62099        3.73178

--Link1--
%chk=JID_7199.chk
%mem=8GB
%nprocshared=4
# B3LYP/6-311++G(d,p) empiricaldispersion=gd3bj scf=xqc pop=npa geom=check

CID_108355192_JID_7199_Energie_neutraal

0 1

--Link1--
%chk=JID_7199.chk
%mem=8GB
%nprocshared=4
# B3LYP/6-311++G(d,p) empiricaldispersion=gd3bj scf=xqc pop=npa geom=check

CID_108355192_JID_7199_Energie_kation

1 2

--Link1--
%chk=JID_7199.chk
%mem=8GB
%nprocshared=4
# B3LYP/6-311++G(d,p) empiricaldispersion=gd3bj scf=xqc pop=npa geom=check

CID_108355192_JID_7199_Energie_anion

-1 2
