%chk=JID_3233.chk
%mem=8GB
%nprocshared=4
# opt freq B3LYP/6-31G(d) empiricaldispersion=gd3bj scf=xqc

CID_82409837_JID_3233_neutraal

0 1
C          0.97161        0.06591       -0.06964
C          0.27916       -1.23538        0.34514
C          0.65779       -1.58423        1.78642
C         -1.25312       -1.14226        0.21610
C         -1.72606       -1.00359       -1.20967
C         -1.76170       -2.10781       -2.05415
C         -2.17258       -1.92905       -3.36962
C         -2.53494       -0.65906       -3.80484
C         -2.49028        0.40146       -2.90374
N         -2.07986        0.23851       -1.62032
C         -2.83907        1.79620       -3.37848
C         -3.32351        2.75003       -2.27704
N         -2.23505        3.19833       -1.40403
H          0.61164        0.91380        0.52306
H          0.79695        0.29089       -1.12643
H          2.05508       -0.00950        0.07273
H          0.65125       -2.03966       -0.30243
H          0.31834       -0.81183        2.48500
H          0.20741       -2.53603        2.08739
H          1.74356       -1.68243        1.89090
H         -1.72254       -2.03611        0.64712
H         -1.62659       -0.29230        0.80223
H         -1.46796       -3.09024       -1.70009
H         -2.20277       -2.77209       -4.05372
H         -2.84415       -0.50331       -4.83342
H         -1.96813        2.21966       -3.89384
H         -3.64429        1.71621       -4.12011
H         -3.76737        3.63713       -2.74155
H         -4.10267        2.26950       -1.67393
H         -2.63410        3.62763       -0.57129
H         -1.76390        2.34675       -1.07039

--Link1--
%chk=JID_3233.chk
%mem=8GB
%nprocshared=4
# B3LYP/6-311++G(d,p) empiricaldispersion=gd3bj scf=xqc pop=npa geom=check

CID_82409837_JID_3233_Energie_neutraal

0 1

--Link1--
%chk=JID_3233.chk
%mem=8GB
%nprocshared=4
# B3LYP/6-311++G(d,p) empiricaldispersion=gd3bj scf=xqc pop=npa geom=check

CID_82409837_JID_3233_Energie_kation

1 2

--Link1--
%chk=JID_3233.chk
%mem=8GB
%nprocshared=4
# B3LYP/6-311++G(d,p) empiricaldispersion=gd3bj scf=xqc pop=npa geom=check

CID_82409837_JID_3233_Energie_anion

-1 2
