%chk=JID_3564.chk
%mem=8GB
%nprocshared=4
# opt freq B3LYP/6-31G(d) empiricaldispersion=gd3bj scf=xqc

CID_131139662_JID_3564_neutraal

0 1
C          0.91148       -0.03572       -0.02980
C          0.91424       -0.42431        1.44386
N          1.18286        0.71692        2.31720
C          1.34016        0.32799        3.71463
C          1.28859        1.66496        4.43289
C          0.19673        2.45750        3.68867
C          0.12327        1.74452        2.30760
C          0.64300        3.93818        3.52046
O          1.35134        4.35156        2.60417
N          0.33443        4.80240        4.55021
C         -0.89180        4.62620        5.29603
C         -1.19692        3.15737        5.58943
N         -1.13741        2.35408        4.36363
H          0.08992        0.64734       -0.26768
H          0.79081       -0.92897       -0.65149
H          1.85390        0.44522       -0.31270
H         -0.03786       -0.90631        1.69899
H          1.70100       -1.17568        1.58601
H          2.29077       -0.18407        3.89377
H          0.52124       -0.31885        4.05426
H          2.26005        2.17137        4.35516
H          1.09282        1.52455        5.50000
H         -0.86071        1.27293        2.17807
H          0.25974        2.42978        1.46444
H          0.63658        5.74860        4.35357
H         -0.80467        5.19854        6.22462
H         -1.69817        5.06588        4.69743
H         -0.50029        2.77102        6.34103
H         -2.20114        3.07753        6.01959
H         -1.31964        1.37614        4.58514

--Link1--
%chk=JID_3564.chk
%mem=8GB
%nprocshared=4
# B3LYP/6-311++G(d,p) empiricaldispersion=gd3bj scf=xqc pop=npa geom=check

CID_131139662_JID_3564_Energie_neutraal

0 1

--Link1--
%chk=JID_3564.chk
%mem=8GB
%nprocshared=4
# B3LYP/6-311++G(d,p) empiricaldispersion=gd3bj scf=xqc pop=npa geom=check

CID_131139662_JID_3564_Energie_kation

1 2

--Link1--
%chk=JID_3564.chk
%mem=8GB
%nprocshared=4
# B3LYP/6-311++G(d,p) empiricaldispersion=gd3bj scf=xqc pop=npa geom=check

CID_131139662_JID_3564_Energie_anion

-1 2
