%chk=JID_2992.chk
%mem=8GB
%nprocshared=4
# opt freq B3LYP/6-31G(d) empiricaldispersion=gd3bj scf=xqc

CID_19888134_JID_2992_neutraal

0 1
C          1.04340        0.06435        0.06306
N          0.51524        1.38599        0.42643
C          0.81004        2.46293       -0.39495
C          0.76177        3.78028       -0.18452
C          0.48611        4.40138        1.07709
C         -0.22483        3.88048        2.08212
C         -0.90183        2.57069        2.12892
C         -1.96237        2.50390        3.06447
C         -2.67380        1.32911        3.28733
C         -2.33451        0.19133        2.57965
C         -1.28629        0.23608        1.65508
C         -0.53256        1.41117        1.39833
H          0.37108       -0.45158       -0.63163
H          1.21978       -0.56005        0.94673
H          2.01698        0.16170       -0.43352
H          1.15957        2.13573       -1.37334
H          1.05304        4.44987       -0.98963
H          0.90403        5.39795        1.20306
H         -0.33532        4.49347        2.97445
H         -2.24729        3.38725        3.63354
H         -3.48653        1.30902        4.00751
H         -2.88384       -0.73341        2.73357
H         -1.09082       -0.68336        1.11134

--Link1--
%chk=JID_2992.chk
%mem=8GB
%nprocshared=4
# B3LYP/6-311++G(d,p) empiricaldispersion=gd3bj scf=xqc pop=npa geom=check

CID_19888134_JID_2992_Energie_neutraal

0 1

--Link1--
%chk=JID_2992.chk
%mem=8GB
%nprocshared=4
# B3LYP/6-311++G(d,p) empiricaldispersion=gd3bj scf=xqc pop=npa geom=check

CID_19888134_JID_2992_Energie_kation

1 2

--Link1--
%chk=JID_2992.chk
%mem=8GB
%nprocshared=4
# B3LYP/6-311++G(d,p) empiricaldispersion=gd3bj scf=xqc pop=npa geom=check

CID_19888134_JID_2992_Energie_anion

-1 2
