%chk=JID_3657.chk
%mem=8GB
%nprocshared=4
# opt freq B3LYP/6-31G(d) empiricaldispersion=gd3bj scf=xqc

CID_83235572_JID_3657_neutraal

0 1
C          0.99902        0.08039       -0.05947
C         -0.09500       -0.92583       -0.40333
C          0.38763       -2.36965       -0.62276
N          1.37359       -2.88068        0.32862
C         -1.29585       -0.83474        0.53292
O         -2.39257       -0.45617        0.11019
N         -1.18313       -1.16818        1.84169
O          0.04826       -1.50820        2.42160
C          0.01246       -1.27058        3.83414
C          1.12391       -2.08288        4.48787
C          2.38718       -1.29017        4.17539
C          1.94816        0.17116        4.11015
C          0.41832        0.16717        4.14073
H          1.50002       -0.14491        0.88525
H          0.57884        1.08811        0.03171
H          1.76120        0.10282       -0.84551
H         -0.49319       -0.60429       -1.37817
H         -0.47073       -3.05145       -0.62441
H          0.83819       -2.43967       -1.62004
H          1.01619       -2.71514        1.27540
H          2.22847       -2.32941        0.26881
H         -1.99919       -1.05353        2.43158
H         -0.96509       -1.53846        4.25107
H          0.97326       -2.12755        5.57286
H          1.19118       -3.10324        4.09823
H          2.79473       -1.59715        3.20480
H          3.16688       -1.45360        4.92569
H          2.32225        0.63866        3.19286
H          2.34762        0.74474        4.95344
H          0.00932        0.89089        3.42909
H          0.07878        0.44298        5.14613

--Link1--
%chk=JID_3657.chk
%mem=8GB
%nprocshared=4
# B3LYP/6-311++G(d,p) empiricaldispersion=gd3bj scf=xqc pop=npa geom=check

CID_83235572_JID_3657_Energie_neutraal

0 1

--Link1--
%chk=JID_3657.chk
%mem=8GB
%nprocshared=4
# B3LYP/6-311++G(d,p) empiricaldispersion=gd3bj scf=xqc pop=npa geom=check

CID_83235572_JID_3657_Energie_kation

1 2

--Link1--
%chk=JID_3657.chk
%mem=8GB
%nprocshared=4
# B3LYP/6-311++G(d,p) empiricaldispersion=gd3bj scf=xqc pop=npa geom=check

CID_83235572_JID_3657_Energie_anion

-1 2
