%chk=JID_8599.chk
%mem=8GB
%nprocshared=4
# opt freq B3LYP/6-31G(d) empiricaldispersion=gd3bj scf=xqc

CID_132314655_JID_8599_neutraal

0 1
C          0.94363        0.07893       -0.02435
C         -0.00074        0.24126        1.15287
N          0.32838        1.40036        1.95581
C         -0.07306        2.68731        1.88110
O          0.34898        3.47801        2.72760
N         -0.94181        3.11053        0.94327
O         -1.15816        2.41405       -0.25948
C         -2.56382        2.31043       -0.48746
C         -3.22868        3.62456       -0.89297
O         -2.66430        4.71178       -0.71618
N         -4.45354        3.64990       -1.49651
C         -5.42126        2.67331       -1.79055
C         -5.44612        1.37494       -1.28520
C         -6.46713        0.48586       -1.64950
C         -7.48085        0.87846       -2.52689
C         -7.48049        2.18872       -3.00649
C         -6.46208        3.07424       -2.64001
C         -8.58758       -0.06687       -2.88755
H          1.97600       -0.03982        0.32191
H          0.92016        0.94708       -0.68923
H          0.67595       -0.80760       -0.60730
H         -1.04197        0.28761        0.82757
H          0.09069       -0.62985        1.81079
H          0.99990        1.26620        2.70044
H         -1.02085        4.12277        0.86122
H         -2.67727        1.59241       -1.30405
H         -3.04757        1.92266        0.41541
H         -4.67138        4.59356       -1.79984
H         -4.72201        1.00628       -0.57295
H         -6.46707       -0.51935       -1.23169
H         -8.27085        2.53218       -3.67052
H         -6.49195        4.08432       -3.04321
H         -9.41120        0.03084       -2.17374
H         -8.96421        0.14006       -3.89477
H         -8.23386       -1.10328       -2.88016

--Link1--
%chk=JID_8599.chk
%mem=8GB
%nprocshared=4
# B3LYP/6-311++G(d,p) empiricaldispersion=gd3bj scf=xqc pop=npa geom=check

CID_132314655_JID_8599_Energie_neutraal

0 1

--Link1--
%chk=JID_8599.chk
%mem=8GB
%nprocshared=4
# B3LYP/6-311++G(d,p) empiricaldispersion=gd3bj scf=xqc pop=npa geom=check

CID_132314655_JID_8599_Energie_kation

1 2

--Link1--
%chk=JID_8599.chk
%mem=8GB
%nprocshared=4
# B3LYP/6-311++G(d,p) empiricaldispersion=gd3bj scf=xqc pop=npa geom=check

CID_132314655_JID_8599_Energie_anion

-1 2
