%chk=JID_3223.chk
%mem=8GB
%nprocshared=4
# opt freq B3LYP/6-31G(d) empiricaldispersion=gd3bj scf=xqc

CID_84718955_JID_3223_neutraal

0 1
C          1.06112        0.07085        0.03528
C          0.68550       -1.19069        0.83961
C          1.74544       -1.36095        1.93373
C         -0.69906       -0.95016        1.44236
O          0.77101       -2.23425       -0.12803
C          0.21719       -3.54615       -0.01325
C          0.71107       -4.40908        1.17568
N         -0.12293       -4.40303        2.37932
C         -1.29545       -3.60125       -0.29713
C         -1.69940       -2.87029       -1.58014
C         -3.11356       -3.37127       -1.83003
C         -3.11006       -4.82606       -1.36776
C         -1.83567       -5.01472       -0.54328
H          1.06229        0.97073        0.65977
H          0.35868        0.22683       -0.79230
H          2.05383       -0.03480       -0.41862
H          1.86455       -0.44326        2.52083
H          1.49075       -2.15362        2.63830
H          2.71722       -1.62214        1.49978
H         -1.45299       -0.80347        0.66285
H         -1.03209       -1.78338        2.06198
H         -0.70242       -0.05844        2.07988
H          0.67663       -4.04301       -0.88053
H          0.74878       -5.45248        0.83941
H          1.73665       -4.13262        1.44038
H          0.28751       -5.03058        3.07056
H         -0.11716       -3.48080        2.80466
H         -1.85726       -3.16486        0.53534
H         -1.66737       -1.78194       -1.48011
H         -1.04704       -3.15420       -2.41494
H         -3.40898       -3.26992       -2.87852
H         -3.82525       -2.79500       -1.22657
H         -3.11263       -5.51028       -2.22336
H         -4.00424       -5.04250       -0.77349
H         -1.11855       -5.61396       -1.11755
H         -2.03813       -5.54899        0.39017

--Link1--
%chk=JID_3223.chk
%mem=8GB
%nprocshared=4
# B3LYP/6-311++G(d,p) empiricaldispersion=gd3bj scf=xqc pop=npa geom=check

CID_84718955_JID_3223_Energie_neutraal

0 1

--Link1--
%chk=JID_3223.chk
%mem=8GB
%nprocshared=4
# B3LYP/6-311++G(d,p) empiricaldispersion=gd3bj scf=xqc pop=npa geom=check

CID_84718955_JID_3223_Energie_kation

1 2

--Link1--
%chk=JID_3223.chk
%mem=8GB
%nprocshared=4
# B3LYP/6-311++G(d,p) empiricaldispersion=gd3bj scf=xqc pop=npa geom=check

CID_84718955_JID_3223_Energie_anion

-1 2
