%chk=JID_10339.chk
%mem=8GB
%nprocshared=4
# opt freq B3LYP/6-31G(d) empiricaldispersion=gd3bj scf=xqc

CID_79581034_JID_10339_neutraal

0 1
C          0.96023       -0.04876        0.07772
C          0.58994        0.85690       -1.09004
N          1.27438        0.38941       -2.29975
C          1.08644        1.23384       -3.50449
C          1.65123        2.66042       -3.29132
C          2.11445        3.10539       -4.66627
C          2.80242        1.85955       -5.18700
C          1.88902        0.69239       -4.75957
C          2.73538       -0.59102       -4.60075
C          1.92710       -1.88832       -4.51842
S          1.29787       -2.37539       -6.16503
C         -0.18657       -3.25478       -5.68093
C         -0.07401       -4.36952       -4.83625
C         -1.20710       -5.07881       -4.43636
C         -2.46382       -4.68598       -4.88377
C         -2.58760       -3.58864       -5.73581
C         -1.45653       -2.86337       -6.14762
C         -1.64372       -1.68943       -7.07111
C         -0.42676        1.33189       -3.87994
O         -1.02041        0.03794       -3.93006
H          0.66924       -1.08635       -0.11859
H          0.44558        0.27954        0.98652
H          2.03758       -0.02459        0.27374
H         -0.49662        0.82517       -1.21487
H          0.87823        1.88308       -0.84036
H          2.27333        0.34163       -2.09220
H          0.92070        3.35486       -2.86333
H          2.51870        2.64043       -2.61791
H          2.79212        3.96243       -4.61798
H          1.26277        3.37504       -5.30060
H          3.79510        1.76771       -4.72872
H          2.93799        1.89236       -6.27283
H          1.18415        0.52548       -5.58439
H          3.44407       -0.66455       -5.43739
H          3.36459       -0.50781       -3.70637
H          2.57848       -2.69620       -4.16830
H          1.10533       -1.79852       -3.80582
H          0.90062       -4.69966       -4.48622
H         -1.10704       -5.93805       -3.77895
H         -3.34963       -5.23403       -4.57389
H         -3.57833       -3.29682       -6.07763
H         -1.25632       -0.77218       -6.61721
H         -1.13685       -1.87069       -8.02451
H         -2.70268       -1.51791       -7.29243
H         -0.98472        1.92478       -3.14735
H         -0.57420        1.80766       -4.85515
H         -0.56871       -0.47689       -3.23280

--Link1--
%chk=JID_10339.chk
%mem=8GB
%nprocshared=4
# B3LYP/6-311++G(d,p) empiricaldispersion=gd3bj scf=xqc pop=npa geom=check

CID_79581034_JID_10339_Energie_neutraal

0 1

--Link1--
%chk=JID_10339.chk
%mem=8GB
%nprocshared=4
# B3LYP/6-311++G(d,p) empiricaldispersion=gd3bj scf=xqc pop=npa geom=check

CID_79581034_JID_10339_Energie_kation

1 2

--Link1--
%chk=JID_10339.chk
%mem=8GB
%nprocshared=4
# B3LYP/6-311++G(d,p) empiricaldispersion=gd3bj scf=xqc pop=npa geom=check

CID_79581034_JID_10339_Energie_anion

-1 2
