%chk=JID_8313.chk
%mem=8GB
%nprocshared=4
# opt freq B3LYP/6-31G(d) empiricaldispersion=gd3bj scf=xqc

CID_133357562_JID_8313_neutraal

0 1
C          0.95305       -0.02487       -0.08472
C          0.53921        1.10605       -1.01767
C         -0.98699        1.18999       -1.14175
C         -1.24734        2.65882       -1.42719
N         -0.26448        3.31793       -0.56892
C          0.99222        2.54363       -0.62856
C          1.74123        2.67136        0.69410
C         -0.17693        4.69024       -0.80217
N          0.82678        5.20778       -1.54761
C          0.89118        6.53655       -1.72962
N          0.06819        7.46514       -1.24323
C         -0.92180        6.95842       -0.47969
C         -1.08143        5.59762       -0.24202
S         -2.44158        5.37311        0.78765
C         -2.67992        7.06586        0.82851
N         -1.84154        7.78879        0.12737
S         -3.97714        7.78907        1.75822
C         -3.47727        9.52430        1.73282
H          0.57308       -0.98289       -0.45629
H          0.55919        0.11511        0.92702
H          2.04295       -0.10495       -0.02508
H          0.95112        0.88684       -2.01251
H         -1.37780        0.53945       -1.93028
H         -1.47054        0.90624       -0.19868
H         -2.27844        2.92858       -1.17869
H         -1.06545        2.87909       -2.48748
H          1.64552        2.89964       -1.43667
H          2.66209        2.08021        0.68502
H          2.02522        3.71307        0.88057
H          1.12492        2.35030        1.54046
H          1.71116        6.89492       -2.34396
H         -2.48248        9.64581        2.17087
H         -3.47728        9.91352        0.71104
H         -4.18691       10.10932        2.32414

--Link1--
%chk=JID_8313.chk
%mem=8GB
%nprocshared=4
# B3LYP/6-311++G(d,p) empiricaldispersion=gd3bj scf=xqc pop=npa geom=check

CID_133357562_JID_8313_Energie_neutraal

0 1

--Link1--
%chk=JID_8313.chk
%mem=8GB
%nprocshared=4
# B3LYP/6-311++G(d,p) empiricaldispersion=gd3bj scf=xqc pop=npa geom=check

CID_133357562_JID_8313_Energie_kation

1 2

--Link1--
%chk=JID_8313.chk
%mem=8GB
%nprocshared=4
# B3LYP/6-311++G(d,p) empiricaldispersion=gd3bj scf=xqc pop=npa geom=check

CID_133357562_JID_8313_Energie_anion

-1 2
