%chk=JID_188.chk
%mem=8GB
%nprocshared=4
# opt freq B3LYP/6-31G(d) empiricaldispersion=gd3bj scf=xqc

CID_147664608_JID_188_neutraal

0 1
C          0.96849        0.07427        0.05908
C         -0.06555       -0.61192        0.55029
N         -1.34118       -0.58701        0.05136
C         -2.40911       -1.50333        0.39370
C         -3.02213       -1.04337        1.68645
N         -3.13650       -1.82827        2.70363
C         -3.71579       -1.34782        3.99631
C         -3.35688       -2.46414        4.96479
C         -3.38185       -3.71297        4.09889
C         -2.73815       -3.26464        2.79392
H          0.87036        0.72887       -0.80088
H          1.95307       -0.00200        0.51122
H          0.08652       -1.25504        1.41523
H         -1.41214       -0.14712       -0.86954
H         -3.18809       -1.44146       -0.37381
H         -2.03908       -2.53101        0.41618
H         -3.39373       -0.00916        1.76475
H         -3.26669       -0.38852        4.26863
H         -4.79709       -1.25303        3.85642
H         -4.05204       -2.52043        5.80757
H         -2.34838       -2.30905        5.36822
H         -4.41978       -4.02338        3.92251
H         -2.85281       -4.55496        4.55451
H         -3.12893       -3.81523        1.93421
H         -1.64568       -3.30419        2.83623

--Link1--
%chk=JID_188.chk
%mem=8GB
%nprocshared=4
# B3LYP/6-311++G(d,p) empiricaldispersion=gd3bj scf=xqc pop=npa geom=check

CID_147664608_JID_188_Energie_neutraal

0 1

--Link1--
%chk=JID_188.chk
%mem=8GB
%nprocshared=4
# B3LYP/6-311++G(d,p) empiricaldispersion=gd3bj scf=xqc pop=npa geom=check

CID_147664608_JID_188_Energie_kation

1 2

--Link1--
%chk=JID_188.chk
%mem=8GB
%nprocshared=4
# B3LYP/6-311++G(d,p) empiricaldispersion=gd3bj scf=xqc pop=npa geom=check

CID_147664608_JID_188_Energie_anion

-1 2
