%chk=JID_9836.chk
%mem=8GB
%nprocshared=4
# opt freq B3LYP/6-31G(d) empiricaldispersion=gd3bj scf=xqc

CID_47108011_JID_9836_neutraal

0 1
C          1.08079       -0.00663        0.05856
C          0.47253       -1.00134       -0.92426
N         -0.11350       -2.17962       -0.28006
C         -0.95740       -2.97493       -1.17781
C         -0.31554       -3.51678       -2.45001
C          0.78651       -2.97686        0.57609
C          2.00841       -3.58341       -0.12698
O          2.78686       -2.91842       -0.81542
N          2.30308       -4.90652        0.03855
C          1.58010       -5.93127        0.76097
C          0.49888       -6.56028       -0.08051
C         -0.83840       -6.53513        0.34765
C         -1.79462       -7.10604       -0.46638
C         -1.47025       -7.70187       -1.66122
C         -0.17001       -7.76478       -2.10873
C          0.82160       -7.18955       -1.30746
O         -2.55937       -8.19420       -2.30881
C         -3.60976       -7.82640       -1.39082
O         -3.12974       -7.14719       -0.21152
H          0.36363        0.26653        0.83973
H          1.36557        0.91021       -0.46839
H          1.98211       -0.40332        0.53531
H         -0.32331       -0.46631       -1.45860
H          1.21897       -1.26800       -1.67900
H         -1.40464       -3.80480       -0.61922
H         -1.81209       -2.35280       -1.47414
H          0.51750       -4.18962       -2.24022
H         -1.05734       -4.08649       -3.02028
H          0.04326       -2.71132       -3.09757
H          1.16832       -2.36157        1.39912
H          0.18880       -3.74667        1.06770
H          3.11196       -5.19145       -0.49842
H          2.30434       -6.70305        1.04558
H          1.17903       -5.51123        1.68823
H         -1.13164       -6.06793        1.28204
H          0.07369       -8.23847       -3.05298
H          1.85491       -7.22152       -1.64822
H         -4.31542       -7.16839       -1.91125
H         -4.13892       -8.73484       -1.08114

--Link1--
%chk=JID_9836.chk
%mem=8GB
%nprocshared=4
# B3LYP/6-311++G(d,p) empiricaldispersion=gd3bj scf=xqc pop=npa geom=check

CID_47108011_JID_9836_Energie_neutraal

0 1

--Link1--
%chk=JID_9836.chk
%mem=8GB
%nprocshared=4
# B3LYP/6-311++G(d,p) empiricaldispersion=gd3bj scf=xqc pop=npa geom=check

CID_47108011_JID_9836_Energie_kation

1 2

--Link1--
%chk=JID_9836.chk
%mem=8GB
%nprocshared=4
# B3LYP/6-311++G(d,p) empiricaldispersion=gd3bj scf=xqc pop=npa geom=check

CID_47108011_JID_9836_Energie_anion

-1 2
