%chk=JID_7877.chk
%mem=8GB
%nprocshared=4
# opt freq B3LYP/6-31G(d) empiricaldispersion=gd3bj scf=xqc

CID_84044229_JID_7877_neutraal

0 1
C          1.07343       -0.05486        0.03998
C          0.69948        1.11351        0.94632
N          1.57093        2.27597        0.80207
C          1.01689        3.52719        1.32338
C          0.39797        3.49506        2.71714
C          3.00748        2.08115        1.02195
C          3.55543        1.83870        2.44357
C          3.36141        0.44435        3.00753
C          4.11405       -0.67032        2.56161
C          3.90984       -1.92255        3.19477
C          2.94442       -2.06147        4.20553
C          2.19460       -0.96777        4.61936
C          2.40838        0.27394        4.03030
C          4.65794       -3.16302        2.84993
O          4.68972       -4.18151        3.51887
O          5.27739       -3.12124        1.65218
N          5.20947       -0.47011        1.69168
H          1.14716        0.26467       -1.00485
H          0.30276       -0.83085        0.09764
H          2.02127       -0.51560        0.32979
H         -0.32215        1.40433        0.66892
H          0.64961        0.76954        1.98245
H          1.77151        4.32276        1.28679
H          0.23404        3.85170        0.62556
H          1.12517        3.23113        3.48606
H          0.00627        4.48718        2.96676
H         -0.43988        2.79375        2.77574
H          3.36377        1.29748        0.34536
H          3.50837        2.98446        0.64604
H          4.63503        2.04329        2.43459
H          3.15949        2.58940        3.13503
H          2.78344       -3.02675        4.68239
H          1.45549       -1.07876        5.40859
H          1.82595        1.12300        4.38181
H          5.67636       -4.01547        1.58397
H          5.49887       -1.35101        1.25505
H          5.08510        0.25913        1.00212

--Link1--
%chk=JID_7877.chk
%mem=8GB
%nprocshared=4
# B3LYP/6-311++G(d,p) empiricaldispersion=gd3bj scf=xqc pop=npa geom=check

CID_84044229_JID_7877_Energie_neutraal

0 1

--Link1--
%chk=JID_7877.chk
%mem=8GB
%nprocshared=4
# B3LYP/6-311++G(d,p) empiricaldispersion=gd3bj scf=xqc pop=npa geom=check

CID_84044229_JID_7877_Energie_kation

1 2

--Link1--
%chk=JID_7877.chk
%mem=8GB
%nprocshared=4
# B3LYP/6-311++G(d,p) empiricaldispersion=gd3bj scf=xqc pop=npa geom=check

CID_84044229_JID_7877_Energie_anion

-1 2
