%chk=JID_3572.chk
%mem=8GB
%nprocshared=4
# opt freq B3LYP/6-31G(d) empiricaldispersion=gd3bj scf=xqc

CID_139835659_JID_3572_neutraal

0 1
C          0.93113        0.05252       -0.04999
C          0.66533       -1.08897       -1.04673
C          1.28723       -2.37481       -0.50132
C         -0.86048       -1.16198       -1.37624
C         -1.20122       -0.39548       -2.68247
C         -1.08587       -1.23861       -3.98423
C         -1.85036       -2.54963       -3.71822
O         -1.25167       -3.24648       -2.63604
C         -1.49233       -2.56334       -1.40918
O         -1.88989       -3.40238       -4.83885
C          0.38405       -1.41645       -4.49573
C          0.49702       -2.24460       -5.78463
C          1.05412       -0.05915       -4.76748
H          0.45340       -0.14501        0.91575
H          0.54721        1.00333       -0.43448
H          2.00573        0.17445        0.12380
H          1.22465       -0.83041       -1.94861
H          0.82666       -2.67710        0.44453
H          1.19396       -3.19472       -1.22043
H          2.35809       -2.23376       -0.31575
H         -1.37553       -0.63357       -0.56097
H         -2.25380       -0.08556       -2.60201
H         -0.64257        0.54268       -2.74455
H         -1.62237       -0.70241       -4.77988
H         -2.89752       -2.32419       -3.47691
H         -1.14213       -3.19353       -0.58752
H         -2.57813       -2.48020       -1.26493
H         -2.23322       -4.24023       -4.48660
H          0.97232       -1.94535       -3.73921
H         -0.22281       -1.91151       -6.53932
H          1.49972       -2.16456       -6.21996
H          0.34232       -3.30923       -5.58902
H          1.16844        0.53623       -3.85881
H          2.06158       -0.19577       -5.17653
H          0.47575        0.52642       -5.49040

--Link1--
%chk=JID_3572.chk
%mem=8GB
%nprocshared=4
# B3LYP/6-311++G(d,p) empiricaldispersion=gd3bj scf=xqc pop=npa geom=check

CID_139835659_JID_3572_Energie_neutraal

0 1

--Link1--
%chk=JID_3572.chk
%mem=8GB
%nprocshared=4
# B3LYP/6-311++G(d,p) empiricaldispersion=gd3bj scf=xqc pop=npa geom=check

CID_139835659_JID_3572_Energie_kation

1 2

--Link1--
%chk=JID_3572.chk
%mem=8GB
%nprocshared=4
# B3LYP/6-311++G(d,p) empiricaldispersion=gd3bj scf=xqc pop=npa geom=check

CID_139835659_JID_3572_Energie_anion

-1 2
