%chk=JID_7170.chk
%mem=8GB
%nprocshared=4
# opt freq B3LYP/6-31G(d) empiricaldispersion=gd3bj scf=xqc

CID_64947795_JID_7170_neutraal

0 1
C          1.02251        0.09597        0.01682
C          1.12642        0.62134        1.44136
C          0.70415        2.09586        1.59529
C          1.47391        3.02365        0.61562
N          1.24367        4.46589        0.84177
C          1.46894        4.82390        2.25913
C          0.61002        3.90436        3.17988
N          0.90424        2.47255        3.00987
C          1.14917        6.27656        2.61955
C          1.86867        5.28317       -0.22515
C          1.02790        6.53495       -0.52423
C          3.33815        5.58500       -0.08945
C          4.40906        4.97450        0.53841
C          5.56554        5.71967        0.20624
C          5.14393        6.73367       -0.62095
O          3.79891        6.65815       -0.80526
C          5.83776        7.82816       -1.32618
H          0.02718        0.27940       -0.39975
H          1.20104       -0.98424        0.00306
H          1.76741        0.55759       -0.63811
H          0.49408       -0.00117        2.08780
H          2.15948        0.48301        1.78560
H         -0.36889        2.16893        1.37125
H          2.54340        2.79259        0.67577
H          1.14331        2.77632       -0.40038
H          2.51793        4.64650        2.52518
H         -0.45969        4.08038        3.00544
H          0.79798        4.15714        4.23022
H          1.88331        2.32097        3.25011
H          1.19445        6.42605        3.70450
H          1.87891        6.96531        2.18535
H          0.14415        6.56153        2.29111
H          1.78992        4.70321       -1.15708
H          1.26632        6.92296       -1.52229
H         -0.04298        6.30178       -0.52450
H          1.20503        7.35340        0.17719
H          4.37061        4.08849        1.15399
H          6.58319        5.52902        0.51757
H          5.63794        7.77824       -2.40105
H          5.49695        8.79914       -0.95493
H          6.92032        7.76540       -1.17880

--Link1--
%chk=JID_7170.chk
%mem=8GB
%nprocshared=4
# B3LYP/6-311++G(d,p) empiricaldispersion=gd3bj scf=xqc pop=npa geom=check

CID_64947795_JID_7170_Energie_neutraal

0 1

--Link1--
%chk=JID_7170.chk
%mem=8GB
%nprocshared=4
# B3LYP/6-311++G(d,p) empiricaldispersion=gd3bj scf=xqc pop=npa geom=check

CID_64947795_JID_7170_Energie_kation

1 2

--Link1--
%chk=JID_7170.chk
%mem=8GB
%nprocshared=4
# B3LYP/6-311++G(d,p) empiricaldispersion=gd3bj scf=xqc pop=npa geom=check

CID_64947795_JID_7170_Energie_anion

-1 2
