%chk=JID_3464.chk
%mem=8GB
%nprocshared=4
# opt freq B3LYP/6-31G(d) empiricaldispersion=gd3bj scf=xqc

CID_144892984_JID_3464_neutraal

0 1
C          1.05227       -0.01024        0.08463
C          0.65940       -1.16299       -0.78269
C         -0.16919       -2.18207       -0.50770
C         -0.88314       -2.39507        0.72912
C         -1.71417       -3.41470        1.00346
C         -2.12686       -4.55449        0.11260
C         -1.62001       -5.88421        0.58157
C         -2.45412       -6.96523        0.77934
N         -2.03002       -8.18521        1.16474
C         -0.70393       -8.32744        1.34603
N          0.19991       -7.34444        1.18209
C         -0.28157       -6.14561        0.79611
C         -0.20606       -9.66317        1.80047
H          0.58595       -0.02291        1.07167
H          0.77459        0.92866       -0.40473
H          2.13759       -0.01089        0.22674
H          1.12162       -1.15385       -1.76985
H         -0.30872       -2.91789       -1.29650
H         -0.72770       -1.66524        1.52105
H         -2.16965       -3.42653        1.99445
H         -3.22435       -4.56411        0.08650
H         -1.81211       -4.41214       -0.92597
H         -3.52754       -6.88910        0.62783
H          0.47461       -5.37635        0.66073
H          0.85027       -9.79138        1.54506
H         -0.31892       -9.74932        2.88499
H         -0.77412      -10.46585        1.32043

--Link1--
%chk=JID_3464.chk
%mem=8GB
%nprocshared=4
# B3LYP/6-311++G(d,p) empiricaldispersion=gd3bj scf=xqc pop=npa geom=check

CID_144892984_JID_3464_Energie_neutraal

0 1

--Link1--
%chk=JID_3464.chk
%mem=8GB
%nprocshared=4
# B3LYP/6-311++G(d,p) empiricaldispersion=gd3bj scf=xqc pop=npa geom=check

CID_144892984_JID_3464_Energie_kation

1 2

--Link1--
%chk=JID_3464.chk
%mem=8GB
%nprocshared=4
# B3LYP/6-311++G(d,p) empiricaldispersion=gd3bj scf=xqc pop=npa geom=check

CID_144892984_JID_3464_Energie_anion

-1 2
