%chk=JID_8708.chk
%mem=8GB
%nprocshared=4
# opt freq B3LYP/6-31G(d) empiricaldispersion=gd3bj scf=xqc

CID_79284739_JID_8708_neutraal

0 1
C          0.92351        0.01052        0.06355
C         -0.38034        0.01052        0.06355
C         -1.90034        0.01052        0.06355
N         -2.40037       -1.36230        0.22298
C         -3.44399       -1.43599        1.25909
C         -3.90419       -2.83500        1.65612
S         -2.81238       -3.67094        2.79512
O         -2.45906       -2.73852        3.84945
O         -3.45062       -4.93021        3.14086
C         -1.33306       -4.06639        1.87982
C         -1.57715       -5.17324        0.86897
C         -0.41687       -5.32424       -0.07897
O          0.63528       -4.70607        0.00222
N         -0.63142       -6.22277       -1.08299
C         -2.74611       -1.95789       -1.08600
C         -4.09218       -1.51273       -1.63518
O         -5.17270       -2.01475       -1.36393
O         -4.02211       -0.43363       -2.43670
H          1.98889       -0.00555        0.06867
H         -2.20534        0.65196        0.90072
H         -2.26658        0.50492       -0.84207
H         -3.08195       -0.92955        2.16249
H         -4.32049       -0.86123        0.93366
H         -4.85233       -2.74300        2.20088
H         -4.09815       -3.49203        0.80651
H         -0.94978       -3.14896        1.43051
H         -0.59188       -4.39403        2.61808
H         -1.72556       -6.12866        1.38579
H         -2.47571       -4.97844        0.27619
H         -1.39895       -6.88082       -1.07005
H          0.14432       -6.40864       -1.70680
H         -1.96722       -1.75838       -1.83268
H         -2.77480       -3.04921       -1.00713
H         -4.95406       -0.24830       -2.67961

--Link1--
%chk=JID_8708.chk
%mem=8GB
%nprocshared=4
# B3LYP/6-311++G(d,p) empiricaldispersion=gd3bj scf=xqc pop=npa geom=check

CID_79284739_JID_8708_Energie_neutraal

0 1

--Link1--
%chk=JID_8708.chk
%mem=8GB
%nprocshared=4
# B3LYP/6-311++G(d,p) empiricaldispersion=gd3bj scf=xqc pop=npa geom=check

CID_79284739_JID_8708_Energie_kation

1 2

--Link1--
%chk=JID_8708.chk
%mem=8GB
%nprocshared=4
# B3LYP/6-311++G(d,p) empiricaldispersion=gd3bj scf=xqc pop=npa geom=check

CID_79284739_JID_8708_Energie_anion

-1 2
