%chk=JID_8197.chk
%mem=8GB
%nprocshared=4
# opt freq B3LYP/6-31G(d) empiricaldispersion=gd3bj scf=xqc

CID_61396123_JID_8197_neutraal

0 1
C          2.49200        0.00400       -0.01400
C          1.01188       -0.25165       -0.01515
C          0.40809       -1.35916        0.60845
C         -0.98792       -1.49498        0.59389
C         -1.79319       -0.54924       -0.04929
C         -1.19842        0.53504       -0.69609
C          0.19076        0.67448       -0.68552
C         -3.26437       -0.71916        0.00713
O         -3.85721       -1.65860        0.50439
O         -3.93013        0.31555       -0.53679
O          1.04765       -2.28128        1.40974
C          2.25617       -2.81463        0.99604
N          2.41378       -3.20205       -0.28103
C          3.63139       -3.67484       -0.57470
N          4.66814       -3.78666        0.27495
C          4.44535       -3.41207        1.55144
C          3.22670       -2.92471        1.96797
C          5.59328       -3.48491        2.51259
H          2.92287       -0.16783        0.97618
H          2.99448       -0.61135       -0.76451
H          2.70829        1.05157       -0.25453
H         -1.44769       -2.33647        1.10932
H         -1.80358        1.28482       -1.19995
H          0.63173        1.53474       -1.18695
H         -4.87290        0.08077       -0.40739
H          3.80486       -3.98759       -1.59873
H          3.04343       -2.60753        2.98530
H          6.42804       -4.04705        2.08293
H          5.94377       -2.47540        2.75105
H          5.28791       -3.98382        3.43782

--Link1--
%chk=JID_8197.chk
%mem=8GB
%nprocshared=4
# B3LYP/6-311++G(d,p) empiricaldispersion=gd3bj scf=xqc pop=npa geom=check

CID_61396123_JID_8197_Energie_neutraal

0 1

--Link1--
%chk=JID_8197.chk
%mem=8GB
%nprocshared=4
# B3LYP/6-311++G(d,p) empiricaldispersion=gd3bj scf=xqc pop=npa geom=check

CID_61396123_JID_8197_Energie_kation

1 2

--Link1--
%chk=JID_8197.chk
%mem=8GB
%nprocshared=4
# B3LYP/6-311++G(d,p) empiricaldispersion=gd3bj scf=xqc pop=npa geom=check

CID_61396123_JID_8197_Energie_anion

-1 2
