%chk=JID_2909.chk
%mem=8GB
%nprocshared=4
# opt freq B3LYP/6-31G(d) empiricaldispersion=gd3bj scf=xqc

CID_54497985_JID_2909_neutraal

0 1
C          1.06054        0.04215       -0.06751
C          0.65810       -0.78165        1.14278
C          1.06493       -0.13596        2.47111
C          0.55038        1.29222        2.69123
C         -0.94777        1.37575        2.63818
C         -1.71160        1.78862        3.65887
C         -3.21190        1.78496        3.62850
C         -3.74411        0.97993        4.77856
C         -4.54211        1.48220        5.73326
C         -5.03007        0.70020        6.92247
C         -4.48047        1.25632        8.23712
O         -4.99245        2.55874        8.50242
H          0.54617        1.00653       -0.09982
H          0.80399       -0.49447       -0.98688
H          2.14013        0.22314       -0.07502
H         -0.42288       -0.96003        1.11834
H          1.13100       -1.76868        1.07401
H          0.71456       -0.77821        3.28939
H          2.16008       -0.12317        2.53613
H          0.91952        1.64484        3.66229
H          0.97318        1.97023        1.94181
H         -1.42586        1.06443        1.71141
H         -1.24326        2.12337        4.58265
H         -3.56793        2.82065        3.67087
H         -3.58865        1.35274        2.69382
H         -3.42688       -0.06057        4.82616
H         -4.87010        2.51713        5.66458
H         -6.12509        0.74154        6.92981
H         -4.73912       -0.35329        6.83397
H         -4.78812        0.61143        9.06594
H         -3.38580        1.30215        8.23409
H         -4.57672        3.16326        7.86392

--Link1--
%chk=JID_2909.chk
%mem=8GB
%nprocshared=4
# B3LYP/6-311++G(d,p) empiricaldispersion=gd3bj scf=xqc pop=npa geom=check

CID_54497985_JID_2909_Energie_neutraal

0 1

--Link1--
%chk=JID_2909.chk
%mem=8GB
%nprocshared=4
# B3LYP/6-311++G(d,p) empiricaldispersion=gd3bj scf=xqc pop=npa geom=check

CID_54497985_JID_2909_Energie_kation

1 2

--Link1--
%chk=JID_2909.chk
%mem=8GB
%nprocshared=4
# B3LYP/6-311++G(d,p) empiricaldispersion=gd3bj scf=xqc pop=npa geom=check

CID_54497985_JID_2909_Energie_anion

-1 2
