%chk=JID_10248.chk
%mem=8GB
%nprocshared=4
# opt freq B3LYP/6-31G(d) empiricaldispersion=gd3bj scf=xqc

CID_65254601_JID_10248_neutraal

0 1
C          1.08247        0.05252        0.02098
C          0.53064        0.11374       -1.41269
C          0.90481       -1.21439       -2.10350
C         -1.01257        0.25743       -1.40296
C         -1.60195        1.57278       -0.85713
C         -1.77497        2.69754       -1.88668
O         -2.79868        2.35567       -2.83092
C         -2.34430        2.02434       -4.07789
C         -1.47341        2.82107       -4.81756
C         -1.02902        2.39461       -6.07110
C         -1.48664        1.17856       -6.58368
C         -2.38414        0.39080       -5.85460
C         -2.83527        0.83359       -4.61389
O         -2.74511       -0.78421       -6.45800
C         -3.36929       -1.75357       -5.62255
O         -0.14364        3.24125       -6.68218
C          0.34380        2.84287       -7.95842
C          1.18602        1.27684       -2.14588
O          1.60276        2.30633       -1.63721
O          1.20655        1.13340       -3.48338
H          0.63161       -0.77019        0.58713
H          0.89888        0.97854        0.57524
H          2.16845       -0.10044        0.01688
H          0.52396       -2.07502       -1.54238
H          0.49021       -1.27488       -3.11652
H          1.99248       -1.32166       -2.19037
H         -1.39969        0.06556       -2.40620
H         -1.41466       -0.55609       -0.78244
H         -2.59906        1.33770       -0.46204
H         -1.01040        1.94189       -0.01416
H         -2.13080        3.59213       -1.36234
H         -0.82338        2.97114       -2.34676
H         -1.13581        3.77838       -4.43212
H         -1.15954        0.80735       -7.54919
H         -3.54539        0.26351       -4.02507
H         -2.76383       -1.96500       -4.73393
H         -4.38020       -1.43818       -5.34529
H         -3.45446       -2.68276       -6.19399
H          0.90727        1.90626       -7.88983
H         -0.47074        2.76340       -8.68591
H          1.03066        3.61833       -8.31075
H          1.56798        1.97738       -3.82731

--Link1--
%chk=JID_10248.chk
%mem=8GB
%nprocshared=4
# B3LYP/6-311++G(d,p) empiricaldispersion=gd3bj scf=xqc pop=npa geom=check

CID_65254601_JID_10248_Energie_neutraal

0 1

--Link1--
%chk=JID_10248.chk
%mem=8GB
%nprocshared=4
# B3LYP/6-311++G(d,p) empiricaldispersion=gd3bj scf=xqc pop=npa geom=check

CID_65254601_JID_10248_Energie_kation

1 2

--Link1--
%chk=JID_10248.chk
%mem=8GB
%nprocshared=4
# B3LYP/6-311++G(d,p) empiricaldispersion=gd3bj scf=xqc pop=npa geom=check

CID_65254601_JID_10248_Energie_anion

-1 2
