%chk=JID_5807.chk
%mem=8GB
%nprocshared=4
# opt freq B3LYP/6-31G(d) empiricaldispersion=gd3bj scf=xqc

CID_65944565_JID_5807_neutraal

0 1
C          0.94162       -0.07844        0.02095
C          0.42168        1.28718        0.42780
C          1.21742        1.93527        1.54881
C          0.79414        3.39305        1.44766
N          0.54679        3.62320        0.02167
C          0.51920        2.33210       -0.67751
C         -0.57504        4.51910       -0.28417
C         -1.92235        3.94216        0.01127
C         -2.66648        3.95556        1.17344
N         -3.79438        3.26205        0.85340
N         -3.78016        2.87019       -0.43142
N         -2.64120        3.29078       -0.96251
C         -4.91341        2.93807        1.71116
C         -6.19146        3.69270        1.33060
N         -6.89030        3.09715        0.19048
H          0.35502       -0.48253       -0.81049
H          0.87459       -0.78150        0.85756
H          1.98882       -0.03211       -0.29636
H         -0.62566        1.18725        0.74351
H          0.98598        1.50344        2.52726
H          2.29621        1.83807        1.37406
H          1.57598        4.06108        1.82279
H         -0.09567        3.54621        2.06563
H          1.46574        2.22632       -1.22228
H         -0.28030        2.22320       -1.41709
H         -0.44975        5.46079        0.26473
H         -0.52933        4.78930       -1.34670
H         -2.48238        4.36464        2.15514
H         -5.05368        1.85133        1.68104
H         -4.62360        3.20439        2.73426
H         -6.87858        3.67606        2.18336
H         -5.96459        4.74212        1.11021
H         -7.61308        3.73413       -0.14305
H         -6.23019        2.99175       -0.58868

--Link1--
%chk=JID_5807.chk
%mem=8GB
%nprocshared=4
# B3LYP/6-311++G(d,p) empiricaldispersion=gd3bj scf=xqc pop=npa geom=check

CID_65944565_JID_5807_Energie_neutraal

0 1

--Link1--
%chk=JID_5807.chk
%mem=8GB
%nprocshared=4
# B3LYP/6-311++G(d,p) empiricaldispersion=gd3bj scf=xqc pop=npa geom=check

CID_65944565_JID_5807_Energie_kation

1 2

--Link1--
%chk=JID_5807.chk
%mem=8GB
%nprocshared=4
# B3LYP/6-311++G(d,p) empiricaldispersion=gd3bj scf=xqc pop=npa geom=check

CID_65944565_JID_5807_Energie_anion

-1 2
