%chk=JID_6791.chk
%mem=8GB
%nprocshared=4
# opt freq B3LYP/6-31G(d) empiricaldispersion=gd3bj scf=xqc

CID_83706607_JID_6791_neutraal

0 1
C          0.95285       -0.07879       -0.03961
N          0.96156        0.27706        1.36784
C         -0.22699        0.68932        1.98520
C         -0.26512        0.74495        3.39310
C         -1.38830        1.19674        4.11027
C         -2.48308        1.64527        3.35856
C         -2.45641        1.64424        1.96388
C         -1.32972        1.18160        1.28532
N         -1.44460        1.24947        5.51478
C         -0.18956        1.14102        6.26329
C         -0.44551        1.57603        7.70686
N         -1.49272        0.79285        8.35211
C         -2.62913        0.42887        7.63054
O         -3.65457        0.02958        8.19076
C         -2.55100        0.43815        6.08850
C         -1.58436        0.87459        9.79748
H          0.74603        0.79113       -0.67100
H          0.22410       -0.86930       -0.24715
H          1.94220       -0.45413       -0.32036
H          1.46963       -0.39200        1.94058
H          0.61548        0.40526        3.92897
H         -3.36100        2.04732        3.85776
H         -3.30830        2.02350        1.40623
H         -1.33593        1.22095        0.20104
H          0.18164        0.10839        6.24442
H          0.57847        1.80030        5.84138
H         -0.75699        2.62711        7.73880
H          0.47805        1.46896        8.28623
H         -3.51777        0.82122        5.74291
H         -2.44805       -0.60758        5.77177
H         -0.60096        0.67912       10.23424
H         -1.92015        1.87871       10.07313
H         -2.29506        0.14184       10.18978

--Link1--
%chk=JID_6791.chk
%mem=8GB
%nprocshared=4
# B3LYP/6-311++G(d,p) empiricaldispersion=gd3bj scf=xqc pop=npa geom=check

CID_83706607_JID_6791_Energie_neutraal

0 1

--Link1--
%chk=JID_6791.chk
%mem=8GB
%nprocshared=4
# B3LYP/6-311++G(d,p) empiricaldispersion=gd3bj scf=xqc pop=npa geom=check

CID_83706607_JID_6791_Energie_kation

1 2

--Link1--
%chk=JID_6791.chk
%mem=8GB
%nprocshared=4
# B3LYP/6-311++G(d,p) empiricaldispersion=gd3bj scf=xqc pop=npa geom=check

CID_83706607_JID_6791_Energie_anion

-1 2
