%chk=JID_1094.chk
%mem=8GB
%nprocshared=4
# opt freq B3LYP/6-31G(d) empiricaldispersion=gd3bj scf=xqc

CID_71634777_JID_1094_neutraal

0 1
C         -2.47500       -0.07800       -0.00600
C         -0.98170        0.06256       -0.00667
N         -0.47555        1.30838       -0.07843
C          0.86943        1.37297       -0.07243
N          1.76518        0.35557       -0.00335
C          1.19326       -0.85936        0.06648
C         -0.17420       -1.06314        0.06867
S          1.62735        3.00339       -0.16330
O          1.35585        3.56341       -1.47282
O          1.32581        3.71901        1.06106
O          3.22075        2.66197       -0.12347
H         -2.80968       -0.54437        0.92576
H         -2.95839        0.90059       -0.09110
H         -2.79766       -0.69202       -0.85255
H          1.87966       -1.70078        0.12334
H         -0.59118       -2.06147        0.12701
H          3.32634        1.68403       -0.06703

--Link1--
%chk=JID_1094.chk
%mem=8GB
%nprocshared=4
# B3LYP/6-311++G(d,p) empiricaldispersion=gd3bj scf=xqc pop=npa geom=check

CID_71634777_JID_1094_Energie_neutraal

0 1

--Link1--
%chk=JID_1094.chk
%mem=8GB
%nprocshared=4
# B3LYP/6-311++G(d,p) empiricaldispersion=gd3bj scf=xqc pop=npa geom=check

CID_71634777_JID_1094_Energie_kation

1 2

--Link1--
%chk=JID_1094.chk
%mem=8GB
%nprocshared=4
# B3LYP/6-311++G(d,p) empiricaldispersion=gd3bj scf=xqc pop=npa geom=check

CID_71634777_JID_1094_Energie_anion

-1 2
