%chk=JID_2133.chk
%mem=8GB
%nprocshared=4
# opt freq B3LYP/6-31G(d) empiricaldispersion=gd3bj scf=xqc

CID_20334569_JID_2133_neutraal

0 1
C          1.06006       -0.07865       -0.01442
C          0.20252        0.92487       -0.76746
C          0.23075        0.77249       -2.29327
C         -0.25762       -0.56526       -2.87734
C         -1.65389       -0.98266       -2.39383
C         -1.97484       -2.36455       -2.95944
O         -0.94077       -3.29509       -2.66769
C          0.34860       -2.86647       -3.10302
O          0.70233       -1.58188       -2.59521
C          0.51599       -2.98798       -4.62463
C          1.93033       -2.66107       -5.07963
O         -2.65101       -0.03474       -2.76922
H          0.64467       -1.08835       -0.07626
H          1.10605        0.19017        1.04600
H          2.08298       -0.09487       -0.40314
H         -0.82779        0.87594       -0.39856
H          0.56314        1.93230       -0.52455
H         -0.37661        1.58127       -2.71895
H          1.26132        0.94282       -2.63125
H         -0.28618       -0.41463       -3.96443
H         -1.65602       -1.06792       -1.30175
H         -2.90479       -2.73814       -2.51630
H         -2.15706       -2.32472       -4.03964
H          1.05553       -3.56683       -2.64431
H          0.25216       -4.00603       -4.93536
H         -0.17684       -2.32460       -5.15254
H          2.65946       -3.31901       -4.59636
H          2.01860       -2.79521       -6.16239
H          2.19309       -1.62446       -4.84678
H         -2.65153        0.04451       -3.73849

--Link1--
%chk=JID_2133.chk
%mem=8GB
%nprocshared=4
# B3LYP/6-311++G(d,p) empiricaldispersion=gd3bj scf=xqc pop=npa geom=check

CID_20334569_JID_2133_Energie_neutraal

0 1

--Link1--
%chk=JID_2133.chk
%mem=8GB
%nprocshared=4
# B3LYP/6-311++G(d,p) empiricaldispersion=gd3bj scf=xqc pop=npa geom=check

CID_20334569_JID_2133_Energie_kation

1 2

--Link1--
%chk=JID_2133.chk
%mem=8GB
%nprocshared=4
# B3LYP/6-311++G(d,p) empiricaldispersion=gd3bj scf=xqc pop=npa geom=check

CID_20334569_JID_2133_Energie_anion

-1 2
