%chk=JID_796.chk
%mem=8GB
%nprocshared=4
# opt freq B3LYP/6-31G(d) empiricaldispersion=gd3bj scf=xqc

CID_54138488_JID_796_neutraal

0 1
C          0.94345        0.06795        0.04674
C          0.45698        1.50121       -0.14243
C          0.85487        2.06240       -1.51419
C          0.08136        1.41401       -2.64761
O         -1.07771        1.02060       -2.56882
C          0.84101        1.29628       -3.96927
O          2.02008        1.01387       -4.04795
O          0.07770        1.54460       -5.03788
S          0.64250        3.89190       -1.59482
C         -1.14207        4.05143       -1.30749
H          0.49682       -0.60672       -0.69002
H          0.66931       -0.29361        1.04298
H          2.03253        0.00786       -0.04637
H         -0.63041        1.51270       -0.00595
H          0.89361        2.11228        0.65718
H          1.92366        1.87283       -1.66137
H          0.66551        1.42367       -5.81092
H         -1.71458        3.54882       -2.08969
H         -1.41906        3.66097       -0.32596
H         -1.40286        5.11339       -1.33121

--Link1--
%chk=JID_796.chk
%mem=8GB
%nprocshared=4
# B3LYP/6-311++G(d,p) empiricaldispersion=gd3bj scf=xqc pop=npa geom=check

CID_54138488_JID_796_Energie_neutraal

0 1

--Link1--
%chk=JID_796.chk
%mem=8GB
%nprocshared=4
# B3LYP/6-311++G(d,p) empiricaldispersion=gd3bj scf=xqc pop=npa geom=check

CID_54138488_JID_796_Energie_kation

1 2

--Link1--
%chk=JID_796.chk
%mem=8GB
%nprocshared=4
# B3LYP/6-311++G(d,p) empiricaldispersion=gd3bj scf=xqc pop=npa geom=check

CID_54138488_JID_796_Energie_anion

-1 2
