%chk=JID_5616.chk
%mem=8GB
%nprocshared=4
# opt freq B3LYP/6-31G(d) empiricaldispersion=gd3bj scf=xqc

CID_63053381_JID_5616_neutraal

0 1
C          0.94840        0.08451        0.01396
C          1.19279       -0.87155       -1.16921
C          2.65183       -1.47542       -1.21909
C          2.95614       -2.43670       -0.05828
C          2.85008       -2.24722       -2.54514
C          3.70373       -0.34416       -1.18436
N          0.14834       -1.92562       -1.33294
C         -0.86660       -1.48785       -2.30079
C         -0.47546       -2.38778       -0.07875
C         -1.30856       -3.67860       -0.21526
C         -0.51337       -4.87674       -0.74577
C          0.44668       -5.44137        0.31371
O          0.73399       -4.96318        1.39865
O          0.98368       -6.62720       -0.06225
N         -1.46268       -5.94779       -1.15412
H          1.10397       -0.39602        0.98384
H         -0.07215        0.48286       -0.01161
H          1.61279        0.95279       -0.03836
H          1.14481       -0.22180       -2.05645
H          2.34147       -3.33782       -0.11395
H          4.00141       -2.76709       -0.08688
H          2.79248       -1.96525        0.91540
H          2.65086       -1.60376       -3.40949
H          3.87797       -2.61679       -2.63809
H          2.18800       -3.11712       -2.61277
H          3.50545        0.40493       -1.95891
H          3.72219        0.16346       -0.21440
H          4.71291       -0.73653       -1.35696
H         -0.39857       -1.20210       -3.25019
H         -1.55872       -2.29604       -2.55406
H         -1.44512       -0.63458       -1.92994
H          0.29367       -2.56639        0.67771
H         -1.13239       -1.60962        0.33102
H         -1.72614       -3.91812        0.77228
H         -2.17386       -3.48474       -0.86065
H          0.08008       -4.59551       -1.62159
H          1.57218       -6.86087        0.68591
H         -0.89654       -6.75729       -1.42357
H         -1.99142       -6.24903       -0.33593

--Link1--
%chk=JID_5616.chk
%mem=8GB
%nprocshared=4
# B3LYP/6-311++G(d,p) empiricaldispersion=gd3bj scf=xqc pop=npa geom=check

CID_63053381_JID_5616_Energie_neutraal

0 1

--Link1--
%chk=JID_5616.chk
%mem=8GB
%nprocshared=4
# B3LYP/6-311++G(d,p) empiricaldispersion=gd3bj scf=xqc pop=npa geom=check

CID_63053381_JID_5616_Energie_kation

1 2

--Link1--
%chk=JID_5616.chk
%mem=8GB
%nprocshared=4
# B3LYP/6-311++G(d,p) empiricaldispersion=gd3bj scf=xqc pop=npa geom=check

CID_63053381_JID_5616_Energie_anion

-1 2
