%chk=JID_9565.chk
%mem=8GB
%nprocshared=4
# opt freq B3LYP/6-31G(d) empiricaldispersion=gd3bj scf=xqc

CID_120967869_JID_9565_neutraal

0 1
C          0.94142        0.04313        0.06861
O          1.93855       -0.89893        0.43735
C          1.97480       -1.99960       -0.35496
C          3.17118       -2.66602       -0.54871
S          2.97168       -3.95855       -1.66695
C          1.28628       -3.71210       -1.76415
C          0.88053       -2.62814       -1.01921
C          4.54040       -2.31672       -0.01238
N          4.99372       -3.02295        1.19456
C          5.16811       -4.46796        1.05330
C          4.05723       -5.10088        1.87536
C          3.95029       -4.14870        3.05920
C          4.18325       -2.76921        2.39905
N          2.78709       -4.24634        3.95131
C          1.46113       -4.06679        3.33489
C          0.73580       -5.34628        2.85471
N          0.72439       -6.42617        3.85398
C          2.10823       -6.68896        4.27825
C          2.81365       -5.43043        4.82769
H          1.09886        0.94763        0.66410
H         -0.06192       -0.33176        0.29513
H          1.02516        0.31877       -0.98858
H          0.67499       -4.36334       -2.37362
H         -0.15273       -2.31231       -0.96784
H          5.28711       -2.46636       -0.80370
H          4.57474       -1.23804        0.19166
H          6.13740       -4.73396        1.49380
H          5.19419       -4.83158        0.02254
H          3.13704       -5.12720        1.28808
H          4.31343       -6.12029        2.17588
H          4.84166       -4.31406        3.68445
H          3.24327       -2.26695        2.17124
H          4.72864       -2.10872        3.08319
H          0.82592       -3.60482        4.10323
H          1.47910       -3.34292        2.51543
H          1.17994       -5.72185        1.92794
H         -0.30238       -5.09233        2.61105
H          0.20860       -6.08974        4.66794
H          2.67158       -7.11625        3.44199
H          2.08902       -7.45613        5.06055
H          3.83948       -5.68504        5.12103
H          2.31167       -5.14722        5.76281

--Link1--
%chk=JID_9565.chk
%mem=8GB
%nprocshared=4
# B3LYP/6-311++G(d,p) empiricaldispersion=gd3bj scf=xqc pop=npa geom=check

CID_120967869_JID_9565_Energie_neutraal

0 1

--Link1--
%chk=JID_9565.chk
%mem=8GB
%nprocshared=4
# B3LYP/6-311++G(d,p) empiricaldispersion=gd3bj scf=xqc pop=npa geom=check

CID_120967869_JID_9565_Energie_kation

1 2

--Link1--
%chk=JID_9565.chk
%mem=8GB
%nprocshared=4
# B3LYP/6-311++G(d,p) empiricaldispersion=gd3bj scf=xqc pop=npa geom=check

CID_120967869_JID_9565_Energie_anion

-1 2
