%chk=JID_3365.chk
%mem=8GB
%nprocshared=4
# opt freq B3LYP/6-31G(d) empiricaldispersion=gd3bj scf=xqc

CID_145879885_JID_3365_neutraal

0 1
C          0.96612       -0.06722        0.06583
C          0.44637        0.04665       -1.35576
S          1.63410       -0.40806       -2.66418
C          3.16640        0.45234       -2.15902
C          3.48744        1.73095       -2.95717
N          3.39027        2.96972       -2.16253
C          4.28679        4.00270       -2.67473
C          2.02242        3.45682       -1.95923
C          1.32299        3.93597       -3.18088
C          0.52261        3.30068       -4.10811
N          0.07722        4.18098       -5.06055
C          0.58789        5.34225       -4.72505
N          1.33782        5.24797       -3.58914
H          1.47322       -1.02169        0.23917
H          0.12793       -0.00575        0.76873
H          1.64466        0.75142        0.32015
H         -0.40191       -0.63775       -1.46935
H          0.05237        1.04737       -1.54755
H          3.22363        0.61858       -1.08193
H          3.96214       -0.27245       -2.37256
H          4.53960        1.61804       -3.25612
H          2.93416        1.79008       -3.90099
H          4.08720        4.25397       -3.72176
H          4.21308        4.91656       -2.07426
H          5.32888        3.67198       -2.59887
H          1.42557        2.68336       -1.47307
H          2.04982        4.27099       -1.22201
H          0.24600        2.25440       -4.14306
H          0.44902        6.27361       -5.25704
H          1.82526        6.00995       -3.13774

--Link1--
%chk=JID_3365.chk
%mem=8GB
%nprocshared=4
# B3LYP/6-311++G(d,p) empiricaldispersion=gd3bj scf=xqc pop=npa geom=check

CID_145879885_JID_3365_Energie_neutraal

0 1

--Link1--
%chk=JID_3365.chk
%mem=8GB
%nprocshared=4
# B3LYP/6-311++G(d,p) empiricaldispersion=gd3bj scf=xqc pop=npa geom=check

CID_145879885_JID_3365_Energie_kation

1 2

--Link1--
%chk=JID_3365.chk
%mem=8GB
%nprocshared=4
# B3LYP/6-311++G(d,p) empiricaldispersion=gd3bj scf=xqc pop=npa geom=check

CID_145879885_JID_3365_Energie_anion

-1 2
