%chk=JID_9802.chk
%mem=8GB
%nprocshared=4
# opt freq B3LYP/6-31G(d) empiricaldispersion=gd3bj scf=xqc

CID_63053038_JID_9802_neutraal

0 1
C          0.96918       -0.06511       -0.06936
C          0.86142       -0.72721        1.29810
C          1.31931        0.19002        2.43475
N          0.37552        1.27987        2.65234
C          0.90221        2.35764        3.51873
C          2.06937        3.17054        2.91992
C          1.75639        3.80691        1.55452
N          2.82429        4.70975        1.11811
C          4.04271        4.05043        0.63324
C          3.97337        3.39490       -0.74092
C          2.39151        5.87071        0.30397
C          1.35310        5.53025       -0.77937
C          1.81954        7.00470        1.20568
O          2.82232        7.77969        1.87106
C          3.40713        7.11879        2.98425
C         -0.21964        3.33413        3.92402
O         -0.19626        4.00592        4.94887
O         -1.17891        3.43631        2.95516
C         -2.20049        4.38921        3.24744
H          0.28275        0.78062       -0.16846
H          0.71923       -0.78638       -0.85419
H          1.98725        0.29264       -0.25332
H         -0.16869       -1.06343        1.46685
H          1.49058       -1.62545        1.29976
H          1.39613       -0.39982        3.35530
H          2.32236        0.55511        2.19319
H          0.02885        1.67527        1.78061
H          1.23116        1.89468        4.45847
H          2.33343        3.96956        3.62612
H          2.95467        2.53050        2.84666
H          1.55965        3.03925        0.79892
H          0.82896        4.37460        1.66906
H          4.85548        4.78804        0.62058
H          4.37042        3.29724        1.35810
H          3.85452        4.13874       -1.53422
H          4.90747        2.85921       -0.94181
H          3.15731        2.67030       -0.80978
H          3.27407        6.29391       -0.19389
H          1.66781        4.69645       -1.41113
H          0.37691        5.27864       -0.35159
H          1.20344        6.39302       -1.43862
H          1.28105        7.71895        0.57173
H          1.08652        6.63334        1.93223
H          2.64772        6.64976        3.61735
H          4.14288        6.38297        2.65292
H          3.93613        7.86730        3.58098
H         -2.73339        4.11430        4.16274
H         -1.77284        5.39334        3.33194
H         -2.91231        4.38729        2.41731

--Link1--
%chk=JID_9802.chk
%mem=8GB
%nprocshared=4
# B3LYP/6-311++G(d,p) empiricaldispersion=gd3bj scf=xqc pop=npa geom=check

CID_63053038_JID_9802_Energie_neutraal

0 1

--Link1--
%chk=JID_9802.chk
%mem=8GB
%nprocshared=4
# B3LYP/6-311++G(d,p) empiricaldispersion=gd3bj scf=xqc pop=npa geom=check

CID_63053038_JID_9802_Energie_kation

1 2

--Link1--
%chk=JID_9802.chk
%mem=8GB
%nprocshared=4
# B3LYP/6-311++G(d,p) empiricaldispersion=gd3bj scf=xqc pop=npa geom=check

CID_63053038_JID_9802_Energie_anion

-1 2
