%chk=JID_8728.chk
%mem=8GB
%nprocshared=4
# opt freq B3LYP/6-31G(d) empiricaldispersion=gd3bj scf=xqc

CID_58823765_JID_8728_neutraal

0 1
C         -3.57200       -0.78000        0.01700
C         -2.15486       -0.29270        0.06569
C         -1.12681       -1.04425       -0.51903
C          0.21216       -0.62414       -0.44515
C          0.52650        0.56800        0.23833
C         -0.50606        1.31248        0.82895
C         -1.83263        0.88296        0.74858
C          1.86807        0.97595        0.32061
C          2.89851        0.22176       -0.25179
C          2.57994       -0.94279       -0.94197
C          1.24815       -1.36485       -1.03283
O          4.14327        0.74404       -0.05600
C          5.30647       -0.02849       -0.34280
C          5.91065       -0.59061        0.94560
C          5.08617       -1.69812        1.60329
C          4.94822       -2.95248        0.78250
O          4.04316       -3.76608        0.86994
O          5.98111       -3.18716       -0.04651
H         -3.76065       -1.34212       -0.90369
H         -3.77465       -1.42792        0.87530
H         -4.27489        0.05960        0.03362
H         -1.37215       -1.97043       -1.03542
H         -0.28267        2.23238        1.36458
H         -2.61156        1.47325        1.22579
H          2.12450        1.89111        0.85051
H          3.32776       -1.55781       -1.42674
H          1.02692       -2.28642       -1.56725
H          5.16715       -0.79169       -1.11104
H          6.03129        0.67667       -0.76739
H          6.92198       -0.95693        0.73349
H          6.01220        0.22546        1.67198
H          5.56297       -1.98532        2.54743
H          4.08247       -1.33134        1.83990
H          5.77097       -4.06179       -0.43779

--Link1--
%chk=JID_8728.chk
%mem=8GB
%nprocshared=4
# B3LYP/6-311++G(d,p) empiricaldispersion=gd3bj scf=xqc pop=npa geom=check

CID_58823765_JID_8728_Energie_neutraal

0 1

--Link1--
%chk=JID_8728.chk
%mem=8GB
%nprocshared=4
# B3LYP/6-311++G(d,p) empiricaldispersion=gd3bj scf=xqc pop=npa geom=check

CID_58823765_JID_8728_Energie_kation

1 2

--Link1--
%chk=JID_8728.chk
%mem=8GB
%nprocshared=4
# B3LYP/6-311++G(d,p) empiricaldispersion=gd3bj scf=xqc pop=npa geom=check

CID_58823765_JID_8728_Energie_anion

-1 2
