%chk=JID_5415.chk
%mem=8GB
%nprocshared=4
# opt freq B3LYP/6-31G(d) empiricaldispersion=gd3bj scf=xqc

CID_78921561_JID_5415_neutraal

0 1
C         -0.02900        0.88300        0.00000
C         -0.73689       -0.09956       -0.88207
C          0.37668       -0.56550        0.02021
N          1.61774       -0.98094       -0.54261
C          2.75141       -1.39369        0.10151
O          3.73321       -1.72920       -0.56455
C          2.78972       -1.41678        1.61314
C          3.45809       -0.16581        2.17882
N          2.47797        0.90411        2.40452
C          3.11128        2.11684        2.95695
C          3.83244        2.93217        1.91163
N          3.56984        2.89242        0.61795
C          4.41495        3.75381       -0.05265
C          5.29462        4.46096        0.73717
S          5.07403        4.02818        2.38003
H         -0.55685        1.26966        0.86428
H          0.63621        1.59988       -0.46890
H         -1.75095       -0.37835       -0.61858
H         -0.55846       -0.04072       -1.94908
H          0.05034       -1.16654        0.86545
H          1.70991       -0.99673       -1.55240
H          1.80264       -1.58995        2.04974
H          3.38666       -2.29594        1.88978
H          3.90803       -0.43123        3.14311
H          4.26457        0.16932        1.51623
H          2.09652        1.17811        1.49342
H          2.31224        2.74341        3.37087
H          3.77242        1.85650        3.79200
H          4.34525        3.83138       -1.13089
H          6.03511        5.18766        0.43616

--Link1--
%chk=JID_5415.chk
%mem=8GB
%nprocshared=4
# B3LYP/6-311++G(d,p) empiricaldispersion=gd3bj scf=xqc pop=npa geom=check

CID_78921561_JID_5415_Energie_neutraal

0 1

--Link1--
%chk=JID_5415.chk
%mem=8GB
%nprocshared=4
# B3LYP/6-311++G(d,p) empiricaldispersion=gd3bj scf=xqc pop=npa geom=check

CID_78921561_JID_5415_Energie_kation

1 2

--Link1--
%chk=JID_5415.chk
%mem=8GB
%nprocshared=4
# B3LYP/6-311++G(d,p) empiricaldispersion=gd3bj scf=xqc pop=npa geom=check

CID_78921561_JID_5415_Energie_anion

-1 2
