%chk=JID_3334.chk
%mem=8GB
%nprocshared=4
# opt freq B3LYP/6-31G(d) empiricaldispersion=gd3bj scf=xqc

CID_130855577_JID_3334_neutraal

0 1
C          1.04736       -0.06450       -0.05997
C          0.33973        1.28770       -0.24712
C          0.89499        1.92469       -1.52721
C         -1.22556        1.14873       -0.23251
C         -1.68201        0.53855        1.09983
C         -1.91020        2.53348       -0.42646
C         -3.47048        2.84213       -0.32760
C         -4.48079        2.02509        0.46972
C         -5.72353        2.90509        0.45178
C         -5.15488        4.28790        0.71732
C         -3.82597        4.32475       -0.04090
C         -3.46553        2.50327       -1.84222
N         -2.04275        2.87823       -1.87918
H          0.68079       -0.80472       -0.77896
H          0.90650       -0.46040        0.94942
H          2.12964        0.03430       -0.20075
H          0.63780        1.93470        0.58903
H          0.57049        1.37625       -2.41752
H          0.59053        2.97070       -1.62082
H          1.99101        1.92583       -1.51922
H         -1.52844        0.45928       -1.03173
H         -1.53822        1.23845        1.92955
H         -2.73617        0.26125        1.06242
H         -1.15798       -0.39003        1.33720
H         -1.33145        3.28175        0.13404
H         -4.67893        1.03623        0.04623
H         -4.14778        1.90607        1.50700
H         -6.45849        2.60388        1.20340
H         -6.20256        2.87516       -0.53391
H         -4.96942        4.41461        1.79091
H         -5.83228        5.08699        0.40198
H         -3.06364        4.81063        0.57799
H         -3.92675        4.90727       -0.96344
H         -3.64191        1.44645       -2.07914
H         -4.11532        3.10567       -2.48402
H         -1.48618        2.32649       -2.52783

--Link1--
%chk=JID_3334.chk
%mem=8GB
%nprocshared=4
# B3LYP/6-311++G(d,p) empiricaldispersion=gd3bj scf=xqc pop=npa geom=check

CID_130855577_JID_3334_Energie_neutraal

0 1

--Link1--
%chk=JID_3334.chk
%mem=8GB
%nprocshared=4
# B3LYP/6-311++G(d,p) empiricaldispersion=gd3bj scf=xqc pop=npa geom=check

CID_130855577_JID_3334_Energie_kation

1 2

--Link1--
%chk=JID_3334.chk
%mem=8GB
%nprocshared=4
# B3LYP/6-311++G(d,p) empiricaldispersion=gd3bj scf=xqc pop=npa geom=check

CID_130855577_JID_3334_Energie_anion

-1 2
