%chk=JID_9163.chk
%mem=8GB
%nprocshared=4
# opt freq B3LYP/6-31G(d) empiricaldispersion=gd3bj scf=xqc

CID_115327045_JID_9163_neutraal

0 1
C          0.91568       -0.04618       -0.02752
C          0.12279        1.14438       -0.55267
C          0.85155        1.83795       -1.73652
C          1.50338        3.15200       -1.19703
N          2.11248        4.01628       -2.22344
C          1.15618        4.28248       -3.33544
C          0.62978        2.91963       -3.89484
N         -0.06471        2.07162       -2.89236
C         -0.48578        0.79538       -3.51257
C         -1.94747        0.80372       -3.98757
C         -2.18291        1.55843       -5.29590
C         -3.54382        1.25264       -5.93323
C         -4.77361        1.66316       -5.10245
C         -4.81706        3.16844       -4.83555
C         -6.05074        1.22957       -5.82767
C         -0.00970        5.17981       -2.79981
C         -1.02141        5.65984       -3.83638
C          1.91318        5.06668       -4.45389
C          3.17529        4.42346       -5.02445
H          1.03433       -0.81090       -0.80161
H          0.39579       -0.50193        0.82103
H          1.91022        0.26236        0.30982
H         -0.87622        0.79262       -0.83451
H         -0.04607        1.84811        0.27171
H          1.67351        1.19810       -2.09014
H          2.29097        2.88410       -0.48131
H          0.77702        3.73801       -0.62273
H          2.90949        3.50860       -2.60143
H          1.47584        2.34963       -4.30093
H         -0.02929        3.12403       -4.74174
H          0.18417        0.49693       -4.32938
H         -0.41647       -0.02582       -2.78978
H         -2.25348       -0.24124       -4.12692
H         -2.58829        1.20867       -3.19486
H         -2.09062        2.63523       -5.13649
H         -1.40532        1.27780       -6.01709
H         -3.58351        1.75584       -6.90820
H         -3.59542        0.17633       -6.14350
H         -4.75039        1.14213       -4.13812
H         -4.77019        3.73851       -5.76969
H         -5.74174        3.44514       -4.31774
H         -3.98411        3.48453       -4.20035
H         -6.05785        0.14612       -5.98774
H         -6.93872        1.48465       -5.23969
H         -6.13909        1.71749       -6.80443
H         -0.58096        4.65325       -2.02681
H          0.41532        6.06733       -2.31141
H         -1.49483        4.82593       -4.35904
H         -1.81514        6.22821       -3.33938
H         -0.56441        6.32470       -4.57418
H          1.23589        5.23176       -5.30074
H          2.18601        6.06139       -4.07679
H          2.97221        3.44440       -5.46562
H          3.58175        5.05887       -5.81901
H          3.95727        4.31467       -4.26804

--Link1--
%chk=JID_9163.chk
%mem=8GB
%nprocshared=4
# B3LYP/6-311++G(d,p) empiricaldispersion=gd3bj scf=xqc pop=npa geom=check

CID_115327045_JID_9163_Energie_neutraal

0 1

--Link1--
%chk=JID_9163.chk
%mem=8GB
%nprocshared=4
# B3LYP/6-311++G(d,p) empiricaldispersion=gd3bj scf=xqc pop=npa geom=check

CID_115327045_JID_9163_Energie_kation

1 2

--Link1--
%chk=JID_9163.chk
%mem=8GB
%nprocshared=4
# B3LYP/6-311++G(d,p) empiricaldispersion=gd3bj scf=xqc pop=npa geom=check

CID_115327045_JID_9163_Energie_anion

-1 2
