%chk=JID_8800.chk
%mem=8GB
%nprocshared=4
# opt freq B3LYP/6-31G(d) empiricaldispersion=gd3bj scf=xqc

CID_91139940_JID_8800_neutraal

0 1
C          0.99688        0.01029        0.09942
C          0.07529        0.43291       -1.03540
C          0.56971       -0.01227       -2.39110
C          0.42909       -1.30042       -2.89792
S          1.06828       -1.45541       -4.47689
C          1.55259        0.17636       -4.53076
C          1.23846        0.83365       -3.35563
C          1.52744        2.24827       -3.11546
C          1.06245        3.32940       -3.82739
O          1.57108        4.48218       -3.31627
C          2.37299        4.13056       -2.27639
C          2.38563        2.76353       -2.11528
N          2.17310        0.66895       -5.62849
C         -0.19596       -2.43458       -2.26717
C         -1.53364       -2.57978       -1.95513
C         -1.81171       -3.82538       -1.31927
C         -0.67674       -4.58987       -1.16780
S          0.71186       -3.80789       -1.78910
H          1.06198       -1.07920        0.17882
H          0.62031        0.39307        1.05333
H          2.01164        0.39372       -0.04398
H         -0.92762        0.02916       -0.85536
H         -0.04617        1.52142       -1.01100
H          0.40201        3.44088       -4.67603
H          2.85996        4.94988       -1.76598
H          2.95159        2.21602       -1.37578
H          2.54719        0.00978       -6.30466
H          2.71251        1.52705       -5.55429
H         -2.28173       -1.82812       -2.17709
H         -2.79400       -4.14419       -0.99286
H         -0.59287       -5.57231       -0.72385

--Link1--
%chk=JID_8800.chk
%mem=8GB
%nprocshared=4
# B3LYP/6-311++G(d,p) empiricaldispersion=gd3bj scf=xqc pop=npa geom=check

CID_91139940_JID_8800_Energie_neutraal

0 1

--Link1--
%chk=JID_8800.chk
%mem=8GB
%nprocshared=4
# B3LYP/6-311++G(d,p) empiricaldispersion=gd3bj scf=xqc pop=npa geom=check

CID_91139940_JID_8800_Energie_kation

1 2

--Link1--
%chk=JID_8800.chk
%mem=8GB
%nprocshared=4
# B3LYP/6-311++G(d,p) empiricaldispersion=gd3bj scf=xqc pop=npa geom=check

CID_91139940_JID_8800_Energie_anion

-1 2
