%chk=JID_9932.chk
%mem=8GB
%nprocshared=4
# opt freq B3LYP/6-31G(d) empiricaldispersion=gd3bj scf=xqc

CID_118039787_JID_9932_neutraal

0 1
C          0.96431       -0.06915       -0.06281
C          0.86709        1.30515        0.58350
C          1.55518        2.39362       -0.23196
C          0.70088        2.88893       -1.37257
O          0.04601        3.91934       -1.32029
O          0.76613        2.02380       -2.41742
C          0.10406        2.34232       -3.66249
C         -1.40090        1.99634       -3.67369
C         -2.25890        2.49642       -2.52239
C          0.58110        3.65575       -4.26274
C          1.91894        3.74389       -4.70374
C          2.45844        4.91659       -5.27097
C          1.60336        6.02136       -5.38332
C          0.27704        5.95544       -4.94811
C         -0.23159        4.78186       -4.39413
C          3.91917        4.94064       -5.75312
C          4.86759        4.51200       -4.61131
C          4.07591        3.96186       -6.93625
C          4.39367        6.33007       -6.23522
H          0.40834       -0.11185       -1.00355
H          0.54219       -0.82761        0.60444
H          2.00636       -0.33806       -0.26261
H         -0.18759        1.55516        0.74801
H          1.34405        1.25243        1.56935
H          1.75144        3.25857        0.41391
H          2.53001        2.07250       -0.61527
H          0.51791        1.59534       -4.35729
H         -1.84707        2.31537       -4.62352
H         -1.48181        0.90077       -3.65068
H         -2.25267        3.58517       -2.44177
H         -3.29843        2.18786       -2.67885
H         -1.93791        2.06588       -1.56945
H          2.54882        2.86098       -4.60201
H          1.94236        6.96193       -5.80765
H         -0.36289        6.83012       -5.03586
H         -1.26219        4.77616       -4.05459
H          4.69455        3.47923       -4.29028
H          5.91635        4.57324       -4.92522
H          4.74375        5.15614       -3.73285
H          3.40607        4.23013       -7.76200
H          5.10156        3.96945       -7.32308
H          3.84588        2.92937       -6.65023
H          3.81329        6.68056       -7.09650
H          4.31240        7.08029       -5.44000
H          5.44412        6.30177       -6.54904

--Link1--
%chk=JID_9932.chk
%mem=8GB
%nprocshared=4
# B3LYP/6-311++G(d,p) empiricaldispersion=gd3bj scf=xqc pop=npa geom=check

CID_118039787_JID_9932_Energie_neutraal

0 1

--Link1--
%chk=JID_9932.chk
%mem=8GB
%nprocshared=4
# B3LYP/6-311++G(d,p) empiricaldispersion=gd3bj scf=xqc pop=npa geom=check

CID_118039787_JID_9932_Energie_kation

1 2

--Link1--
%chk=JID_9932.chk
%mem=8GB
%nprocshared=4
# B3LYP/6-311++G(d,p) empiricaldispersion=gd3bj scf=xqc pop=npa geom=check

CID_118039787_JID_9932_Energie_anion

-1 2
