%chk=JID_5593.chk
%mem=8GB
%nprocshared=4
# opt freq B3LYP/6-31G(d) empiricaldispersion=gd3bj scf=xqc

CID_151146625_JID_5593_neutraal

0 1
C          1.86400        1.49500        0.03800
C          0.56409        0.74236        0.08766
C         -0.63795        1.45559        0.18951
C         -1.89751        0.82094        0.18986
C         -1.97234       -0.58496        0.12843
C         -0.74048       -1.28010        0.00524
C          0.51479       -0.65172        0.03982
N          1.66305       -1.42089       -0.20078
C         -3.27421       -1.42392        0.15217
C         -3.48590       -2.04801       -1.24497
C         -3.15491       -2.56275        1.19913
C         -4.57367       -0.67097        0.51450
N         -3.02807        1.64904        0.26773
N         -3.27617        2.21595       -0.81579
N         -3.51497        2.74280       -1.79912
H          2.48358        1.23807        0.90321
H          2.40650        1.25886       -0.88317
H          1.70469        2.57844        0.05552
H         -0.60447        2.54243        0.25476
H         -0.74993       -2.36067       -0.12355
H          1.57281       -2.39086        0.08522
H          2.51980       -1.00473        0.14852
H         -2.66082       -2.70927       -1.53213
H         -4.40412       -2.64618       -1.27667
H         -3.56696       -1.27124       -2.01464
H         -2.93270       -2.15846        2.19387
H         -4.08828       -3.13388        1.27292
H         -2.37285       -3.28775        0.95243
H         -4.48452       -0.14801        1.47316
H         -4.86387        0.04544       -0.25998
H         -5.41873       -1.36493        0.60722

--Link1--
%chk=JID_5593.chk
%mem=8GB
%nprocshared=4
# B3LYP/6-311++G(d,p) empiricaldispersion=gd3bj scf=xqc pop=npa geom=check

CID_151146625_JID_5593_Energie_neutraal

0 1

--Link1--
%chk=JID_5593.chk
%mem=8GB
%nprocshared=4
# B3LYP/6-311++G(d,p) empiricaldispersion=gd3bj scf=xqc pop=npa geom=check

CID_151146625_JID_5593_Energie_kation

1 2

--Link1--
%chk=JID_5593.chk
%mem=8GB
%nprocshared=4
# B3LYP/6-311++G(d,p) empiricaldispersion=gd3bj scf=xqc pop=npa geom=check

CID_151146625_JID_5593_Energie_anion

-1 2
