%chk=JID_6146.chk
%mem=8GB
%nprocshared=4
# opt freq B3LYP/6-31G(d) empiricaldispersion=gd3bj scf=xqc

CID_60924507_JID_6146_neutraal

0 1
C         -2.13100       -0.04600       -0.06100
N         -0.70148        0.11507        0.04228
C          0.23358       -0.87403        0.12704
C          1.45793       -0.24807        0.20985
C          1.13982        1.12658        0.16782
N         -0.17600        1.35092        0.07264
N          2.63829       -0.95338        0.32655
C          3.93900       -0.51075        0.44169
O          4.83873       -1.32513        0.66011
C          4.28135        0.91899        0.26692
C          4.76544        1.66420        1.34051
C          5.12616        2.98780        1.10791
C          4.99873        3.51268       -0.17760
C          4.50880        2.69575       -1.18598
N          4.14204        1.41140       -0.99707
O          4.85666        1.13772        2.59510
H         -2.59691        0.44962        0.79436
H         -2.46225        0.40967       -0.99745
H         -2.37892       -1.11025       -0.05567
H         -0.04517       -1.91791        0.12206
H          1.78946        1.98777        0.20953
H          2.56270       -1.96006        0.39396
H          5.49981        3.62066        1.90686
H          5.27392        4.54077       -0.38958
H          4.39381        3.06638       -2.20133
H          5.33409        1.75378        3.17481

--Link1--
%chk=JID_6146.chk
%mem=8GB
%nprocshared=4
# B3LYP/6-311++G(d,p) empiricaldispersion=gd3bj scf=xqc pop=npa geom=check

CID_60924507_JID_6146_Energie_neutraal

0 1

--Link1--
%chk=JID_6146.chk
%mem=8GB
%nprocshared=4
# B3LYP/6-311++G(d,p) empiricaldispersion=gd3bj scf=xqc pop=npa geom=check

CID_60924507_JID_6146_Energie_kation

1 2

--Link1--
%chk=JID_6146.chk
%mem=8GB
%nprocshared=4
# B3LYP/6-311++G(d,p) empiricaldispersion=gd3bj scf=xqc pop=npa geom=check

CID_60924507_JID_6146_Energie_anion

-1 2
