%chk=JID_3176.chk
%mem=8GB
%nprocshared=4
# opt freq B3LYP/6-31G(d) empiricaldispersion=gd3bj scf=xqc

CID_21433561_JID_3176_neutraal

0 1
C          1.05542       -0.04119       -0.07233
O          0.57922       -1.38615       -0.15264
C          0.60663       -1.91310       -1.40363
O          1.02623       -1.33327       -2.39756
C          0.10053       -3.34684       -1.43901
C         -0.74290       -3.74669       -0.21998
C         -1.25374       -5.17674       -0.33932
C         -0.11079       -6.12935       -0.61071
O         -0.02783       -7.21418       -0.03741
C          0.83312       -5.75110       -1.73041
C          1.28796       -4.30346       -1.59495
C         -1.80451        1.62701        2.12565
C         -2.00036        0.30586        2.15081
H          1.03217        0.26471        0.97697
H          0.40622        0.62739       -0.64600
H          2.08950        0.02324       -0.42545
H         -0.54442       -3.41413       -2.32602
H         -1.59229       -3.06239       -0.10668
H         -0.14296       -3.65999        0.69563
H         -1.97554       -5.26780       -1.15807
H         -1.75188       -5.47134        0.59027
H          1.70231       -6.41670       -1.70574
H          0.31068       -5.90718       -2.68053
H          1.88692       -4.02905       -2.47182
H          1.95119       -4.20783       -0.72485
H         -2.28426        2.25037        1.37746
H         -1.16420        2.11223        2.85582
H         -2.64296       -0.17910        1.42285
H         -1.52254       -0.31692        2.90078

--Link1--
%chk=JID_3176.chk
%mem=8GB
%nprocshared=4
# B3LYP/6-311++G(d,p) empiricaldispersion=gd3bj scf=xqc pop=npa geom=check

CID_21433561_JID_3176_Energie_neutraal

0 1

--Link1--
%chk=JID_3176.chk
%mem=8GB
%nprocshared=4
# B3LYP/6-311++G(d,p) empiricaldispersion=gd3bj scf=xqc pop=npa geom=check

CID_21433561_JID_3176_Energie_kation

1 2

--Link1--
%chk=JID_3176.chk
%mem=8GB
%nprocshared=4
# B3LYP/6-311++G(d,p) empiricaldispersion=gd3bj scf=xqc pop=npa geom=check

CID_21433561_JID_3176_Energie_anion

-1 2
