%chk=JID_5204.chk
%mem=8GB
%nprocshared=4
# opt freq B3LYP/6-31G(d) empiricaldispersion=gd3bj scf=xqc

CID_22607833_JID_5204_neutraal

0 1
C          1.03679       -0.08897       -0.02704
C         -0.32157        0.33758       -0.58919
C         -0.58817       -0.38684       -1.90693
C         -1.42823        0.04575        0.43285
O         -1.48948        1.11728        1.37290
C         -1.61516        0.75730        2.75469
C         -2.62909       -0.34393        3.06215
N         -0.28410        0.55175        3.31208
C          0.56337        1.52760        3.73624
N          1.68847        0.98938        4.13734
C          1.50486       -0.36679        3.91706
N          0.28429       -0.66668        3.41998
C          2.55615       -1.36144        4.19215
O          3.66839       -1.12708        4.64943
O          2.23365       -2.64894        3.89405
H          1.04414       -1.14849        0.25019
H          1.29696        0.50195        0.85489
H          1.82893        0.06933       -0.76697
H         -0.28148        1.41617       -0.78839
H         -0.64962       -1.47036       -1.76331
H         -1.53002       -0.04676       -2.35061
H          0.20924       -0.18324       -2.63004
H         -2.40533        0.00867       -0.06109
H         -1.24930       -0.92557        0.90317
H         -1.98554        1.66419        3.24972
H         -2.30257       -1.32842        2.71271
H         -2.79322       -0.42616        4.14177
H         -3.58597       -0.12946        2.57541
H          0.32092        2.58122        3.71747
H          3.04775       -3.13235        4.13707

--Link1--
%chk=JID_5204.chk
%mem=8GB
%nprocshared=4
# B3LYP/6-311++G(d,p) empiricaldispersion=gd3bj scf=xqc pop=npa geom=check

CID_22607833_JID_5204_Energie_neutraal

0 1

--Link1--
%chk=JID_5204.chk
%mem=8GB
%nprocshared=4
# B3LYP/6-311++G(d,p) empiricaldispersion=gd3bj scf=xqc pop=npa geom=check

CID_22607833_JID_5204_Energie_kation

1 2

--Link1--
%chk=JID_5204.chk
%mem=8GB
%nprocshared=4
# B3LYP/6-311++G(d,p) empiricaldispersion=gd3bj scf=xqc pop=npa geom=check

CID_22607833_JID_5204_Energie_anion

-1 2
