%chk=JID_9701.chk
%mem=8GB
%nprocshared=4
# opt freq B3LYP/6-31G(d) empiricaldispersion=gd3bj scf=xqc

CID_61501733_JID_9701_neutraal

0 1
C          1.06514        0.06326       -0.04189
C          0.56037       -0.68749        1.20632
C          1.23298       -0.08629        2.45671
C         -0.95950       -0.45660        1.32432
C          0.91494       -2.16246        1.08973
C          0.06186       -3.24678        1.01873
S          0.95272       -4.69834        0.88064
C          2.42688       -3.80557        0.90751
N          2.26178       -2.50697        1.03482
N          3.68100       -4.33366        0.82821
C          3.99542       -5.69098        1.09050
C          4.51392       -6.00313        2.36271
C          4.79093       -7.32044        2.72726
C          4.54871       -8.35192        1.82869
C          4.02815       -8.06750        0.56496
C          3.73841       -6.74448        0.17926
C          3.23192       -6.50220       -1.21023
S          2.19954       -7.50968       -2.06226
N          3.66688       -5.36296       -1.83699
H          0.81952        1.13013        0.00922
H          0.61440       -0.34135       -0.95586
H          2.15295       -0.02050       -0.14956
H          0.98621        0.97566        2.56909
H          0.90965       -0.60443        3.36721
H          2.32514       -0.16645        2.40505
H         -1.49270       -0.83552        0.44447
H         -1.37347       -0.95854        2.20679
H         -1.19263        0.61084        1.41354
H         -1.01791       -3.26572        1.03763
H          4.35736       -3.69593        1.23872
H          4.68992       -5.21313        3.09003
H          5.18888       -7.54031        3.71486
H          4.76482       -9.38079        2.10664
H          3.86761       -8.89629       -0.12125
H          4.15504       -4.63647       -1.32466
H          3.27186       -5.11822       -2.73659

--Link1--
%chk=JID_9701.chk
%mem=8GB
%nprocshared=4
# B3LYP/6-311++G(d,p) empiricaldispersion=gd3bj scf=xqc pop=npa geom=check

CID_61501733_JID_9701_Energie_neutraal

0 1

--Link1--
%chk=JID_9701.chk
%mem=8GB
%nprocshared=4
# B3LYP/6-311++G(d,p) empiricaldispersion=gd3bj scf=xqc pop=npa geom=check

CID_61501733_JID_9701_Energie_kation

1 2

--Link1--
%chk=JID_9701.chk
%mem=8GB
%nprocshared=4
# B3LYP/6-311++G(d,p) empiricaldispersion=gd3bj scf=xqc pop=npa geom=check

CID_61501733_JID_9701_Energie_anion

-1 2
