%chk=JID_9021.chk
%mem=8GB
%nprocshared=4
# opt freq B3LYP/6-31G(d) empiricaldispersion=gd3bj scf=xqc

CID_8912715_JID_9021_neutraal

0 1
C          0.97210       -0.08690       -0.04085
C          0.95490       -1.58636       -0.33030
C          1.68613       -2.35062        0.76983
N         -0.41901       -2.06605       -0.43000
C         -1.19126       -2.18188       -1.55286
O         -2.40453       -2.35435       -1.41938
C         -0.53610       -2.11621       -2.93580
N         -0.18919       -0.73053       -3.30377
C          0.67528       -0.71386       -4.48299
C         -1.37687        0.14200       -3.47457
C         -2.29904       -0.18000       -4.62948
N         -2.00941        0.04642       -5.89560
C         -3.06525       -0.34329       -6.70213
C         -3.10515       -0.25810       -8.10880
C         -4.24138       -0.69068       -8.80054
C         -5.33350       -1.20484       -8.10855
C         -5.31926       -1.29824       -6.71321
C         -4.17306       -0.86006       -6.02919
S         -3.85941       -0.83975       -4.33801
H          0.47687        0.13759        0.91064
H          0.44878        0.47606       -0.81955
H          1.99960        0.28748        0.01370
H          1.47436       -1.76628       -1.27527
H          1.20525       -2.20629        1.74382
H          1.68648       -3.42562        0.55871
H          2.72701       -2.02053        0.85034
H         -0.97331       -2.07813        0.41795
H          0.36021       -2.74776       -2.90219
H         -1.20641       -2.58417       -3.66632
H          0.23617       -1.23306       -5.34137
H          0.91744        0.31319       -4.77784
H          1.62936       -1.20186       -4.25278
H         -1.93901        0.18540       -2.53369
H         -1.01924        1.17059       -3.62005
H         -2.25065        0.14432       -8.64347
H         -4.26822       -0.62307       -9.88558
H         -6.21150       -1.53826       -8.65794
H         -6.17210       -1.69853       -6.17337

--Link1--
%chk=JID_9021.chk
%mem=8GB
%nprocshared=4
# B3LYP/6-311++G(d,p) empiricaldispersion=gd3bj scf=xqc pop=npa geom=check

CID_8912715_JID_9021_Energie_neutraal

0 1

--Link1--
%chk=JID_9021.chk
%mem=8GB
%nprocshared=4
# B3LYP/6-311++G(d,p) empiricaldispersion=gd3bj scf=xqc pop=npa geom=check

CID_8912715_JID_9021_Energie_kation

1 2

--Link1--
%chk=JID_9021.chk
%mem=8GB
%nprocshared=4
# B3LYP/6-311++G(d,p) empiricaldispersion=gd3bj scf=xqc pop=npa geom=check

CID_8912715_JID_9021_Energie_anion

-1 2
