%chk=JID_5274.chk
%mem=8GB
%nprocshared=4
# opt freq B3LYP/6-31G(d) empiricaldispersion=gd3bj scf=xqc

CID_136822415_JID_5274_neutraal

0 1
C          0.97424        0.00269        0.09659
C          0.39435        0.85331       -1.01943
O          1.31907        1.87140       -1.40442
C          2.13850        1.63169       -2.47657
C          2.76247        2.76939       -3.00550
C          3.61538        2.69437       -4.09926
C          3.86939        1.45262       -4.67765
C          3.27833        0.29911       -4.14660
C          2.40900        0.38854       -3.04756
C          3.57742       -1.01998       -4.75893
N          4.10117       -1.11544       -5.95624
C          4.22797       -2.57834       -6.19615
C          4.02776       -3.25274       -4.83928
N          3.35377       -2.20834       -4.09823
O          2.53142        3.99991       -2.45228
H          1.87798       -0.52112       -0.22872
H          0.24494       -0.73771        0.43744
H          1.26152        0.63055        0.94662
H          0.04871        0.25033       -1.86650
H         -0.49282        1.37017       -0.63605
H          4.07573        3.59337       -4.49761
H          4.53373        1.38387       -5.53629
H          1.95127       -0.51593       -2.66669
H          5.20938       -2.81612       -6.61767
H          3.45707       -2.88890       -6.91019
H          3.42950       -4.16490       -4.90885
H          4.99132       -3.48384       -4.37293
H          3.51962       -2.20168       -3.09851
H          1.91784        3.83313       -1.71087

--Link1--
%chk=JID_5274.chk
%mem=8GB
%nprocshared=4
# B3LYP/6-311++G(d,p) empiricaldispersion=gd3bj scf=xqc pop=npa geom=check

CID_136822415_JID_5274_Energie_neutraal

0 1

--Link1--
%chk=JID_5274.chk
%mem=8GB
%nprocshared=4
# B3LYP/6-311++G(d,p) empiricaldispersion=gd3bj scf=xqc pop=npa geom=check

CID_136822415_JID_5274_Energie_kation

1 2

--Link1--
%chk=JID_5274.chk
%mem=8GB
%nprocshared=4
# B3LYP/6-311++G(d,p) empiricaldispersion=gd3bj scf=xqc pop=npa geom=check

CID_136822415_JID_5274_Energie_anion

-1 2
