%chk=JID_9384.chk
%mem=8GB
%nprocshared=4
# opt freq B3LYP/6-31G(d) empiricaldispersion=gd3bj scf=xqc

CID_116972318_JID_9384_neutraal

0 1
C          1.08561        0.04635        0.02287
C          0.46983       -0.94009        1.02088
C          0.79009       -0.51121        2.45349
C         -1.02387       -1.10296        0.83890
N         -1.72832       -0.09954        0.28541
N         -3.09434       -0.22367        0.10263
C         -3.76967       -1.32042        0.50490
C         -3.05169       -2.35660        1.09067
C         -1.67079       -2.25272        1.26069
N         -5.14623       -1.43517        0.29565
C         -5.74376       -0.47154       -0.63594
C         -6.20855        0.79101        0.08564
C         -7.12592        0.44565        1.25792
C         -6.49386       -0.58065        2.21617
C         -5.99180       -1.80906        1.43437
C         -5.38766        0.03456        3.08831
C         -5.97291        0.93120        4.14340
O         -6.72359        0.58736        5.04181
O         -5.60896        2.21809        4.00511
H          0.70831        1.06420        0.17313
H          0.86059       -0.24693       -1.00859
H          2.17516        0.07538        0.13224
H          0.93970       -1.91550        0.83696
H          0.32993        0.45343        2.69525
H          0.42187       -1.24551        3.17869
H          1.87183       -0.41740        2.59787
H         -3.54907       -3.27444        1.38405
H         -1.11762       -3.07146        1.70872
H         -6.61292       -0.95113       -1.10489
H         -5.06821       -0.22090       -1.46321
H         -6.74496        1.43690       -0.61896
H         -5.34737        1.36598        0.44282
H         -7.40599        1.36049        1.79180
H         -8.05825        0.02413        0.85954
H         -7.28990       -0.93223        2.88709
H         -5.50712       -2.51927        2.11356
H         -6.86411       -2.34274        1.03384
H         -4.82508       -0.74374        3.61755
H         -4.65956        0.59805        2.49707
H         -6.06337        2.68131        4.73901

--Link1--
%chk=JID_9384.chk
%mem=8GB
%nprocshared=4
# B3LYP/6-311++G(d,p) empiricaldispersion=gd3bj scf=xqc pop=npa geom=check

CID_116972318_JID_9384_Energie_neutraal

0 1

--Link1--
%chk=JID_9384.chk
%mem=8GB
%nprocshared=4
# B3LYP/6-311++G(d,p) empiricaldispersion=gd3bj scf=xqc pop=npa geom=check

CID_116972318_JID_9384_Energie_kation

1 2

--Link1--
%chk=JID_9384.chk
%mem=8GB
%nprocshared=4
# B3LYP/6-311++G(d,p) empiricaldispersion=gd3bj scf=xqc pop=npa geom=check

CID_116972318_JID_9384_Energie_anion

-1 2
