%chk=JID_8428.chk
%mem=8GB
%nprocshared=4
# opt freq B3LYP/6-31G(d) empiricaldispersion=gd3bj scf=xqc

CID_105667181_JID_8428_neutraal

0 1
C          0.94454        0.05208       -0.06489
C          0.01474       -0.64653        0.91372
C          0.39564       -2.08922        1.34564
C         -0.48940       -2.18913        2.58485
C         -0.34862       -0.80692        3.20235
O         -0.08051        0.11555        2.13240
C          0.02457       -3.08237        0.24104
N          1.82817       -2.17978        1.71112
C          2.55675       -3.12603        2.34753
O          3.70695       -2.87020        2.68949
N          1.93805       -4.29673        2.63080
C          2.64848       -5.37793        3.30099
C          1.68139       -6.45068        3.82108
C          2.43111       -7.69618        4.28687
C          0.84259       -5.89808        4.97828
O         -0.38106       -5.89530        5.01268
O          1.55688       -5.45377        6.02830
O          0.82183       -6.84462        2.73178
H          0.52169        1.02243       -0.34881
H          1.08848       -0.53812       -0.97408
H          1.91987        0.27187        0.37958
H         -0.99417       -0.64458        0.47819
H         -0.22735       -2.97870        3.29311
H         -1.53567       -2.34739        2.29265
H          0.49473       -0.76332        3.89946
H         -1.25342       -0.49691        3.73303
H          0.73022       -3.02230       -0.59476
H          0.01040       -4.11722        0.58871
H         -0.97738       -2.87994       -0.15478
H          2.35626       -1.31534        1.67842
H          1.25681       -4.61384        1.96090
H          3.31998       -5.80575        2.54634
H          3.26965       -4.96123        4.10198
H          3.14550       -7.46823        5.08486
H          1.73163       -8.45055        4.66583
H          2.97356       -8.16063        3.45578
H          0.88819       -5.13197        6.66934
H         -0.00676       -7.16565        3.13961

--Link1--
%chk=JID_8428.chk
%mem=8GB
%nprocshared=4
# B3LYP/6-311++G(d,p) empiricaldispersion=gd3bj scf=xqc pop=npa geom=check

CID_105667181_JID_8428_Energie_neutraal

0 1

--Link1--
%chk=JID_8428.chk
%mem=8GB
%nprocshared=4
# B3LYP/6-311++G(d,p) empiricaldispersion=gd3bj scf=xqc pop=npa geom=check

CID_105667181_JID_8428_Energie_kation

1 2

--Link1--
%chk=JID_8428.chk
%mem=8GB
%nprocshared=4
# B3LYP/6-311++G(d,p) empiricaldispersion=gd3bj scf=xqc pop=npa geom=check

CID_105667181_JID_8428_Energie_anion

-1 2
