%chk=JID_9761.chk
%mem=8GB
%nprocshared=4
# opt freq B3LYP/6-31G(d) empiricaldispersion=gd3bj scf=xqc

CID_83091571_JID_9761_neutraal

0 1
C         -2.48100        0.63200       -0.02500
C         -1.08597        0.18903        0.22573
N         -0.16324        1.08251        0.60174
N          0.96247        0.36039        0.72235
C          0.77784       -0.96807        0.49658
C         -0.54506       -1.12661        0.13213
C         -1.25455       -2.39029       -0.24164
C         -0.89919       -2.95710       -1.62776
C          0.51454       -3.42598       -1.76246
N          1.52694       -2.72006       -2.23178
C          2.58318       -3.57497       -2.14075
N          2.29668       -4.78260       -1.65764
N          0.96626       -4.68623       -1.45543
C          0.22464       -5.84772       -1.00706
C         -0.32399       -6.71001       -2.15786
C          0.78543       -7.46862       -2.89002
C         -1.35322       -7.70386       -1.61490
O         -1.09004       -3.39836        0.76292
C          2.19772        1.01922        1.06790
H         -2.60046        1.70717        0.14430
H         -2.76663        0.41868       -1.05997
H         -3.17293        0.10690        0.64109
H          1.58993       -1.67908        0.56959
H         -2.33090       -2.17848       -0.25847
H         -1.57104       -3.79396       -1.85420
H         -1.08426       -2.19222       -2.39264
H          3.59026       -3.30948       -2.43514
H          0.88570       -6.43159       -0.35481
H         -0.59785       -5.49142       -0.38280
H         -0.83107       -6.06434       -2.88609
H          1.36094       -8.09505       -2.19992
H          0.36472       -8.11956       -3.66410
H          1.47754       -6.78163       -3.38587
H         -2.18503       -7.17818       -1.13405
H         -1.76960       -8.31458       -2.42308
H         -0.90468       -8.37750       -0.87677
H         -1.05208       -2.92757        1.61524
H          2.41718        1.76512        0.29984
H          2.07330        1.49607        2.04324
H          3.00362        0.28249        1.11233

--Link1--
%chk=JID_9761.chk
%mem=8GB
%nprocshared=4
# B3LYP/6-311++G(d,p) empiricaldispersion=gd3bj scf=xqc pop=npa geom=check

CID_83091571_JID_9761_Energie_neutraal

0 1

--Link1--
%chk=JID_9761.chk
%mem=8GB
%nprocshared=4
# B3LYP/6-311++G(d,p) empiricaldispersion=gd3bj scf=xqc pop=npa geom=check

CID_83091571_JID_9761_Energie_kation

1 2

--Link1--
%chk=JID_9761.chk
%mem=8GB
%nprocshared=4
# B3LYP/6-311++G(d,p) empiricaldispersion=gd3bj scf=xqc pop=npa geom=check

CID_83091571_JID_9761_Energie_anion

-1 2
