%chk=JID_8195.chk
%mem=8GB
%nprocshared=4
# opt freq B3LYP/6-31G(d) empiricaldispersion=gd3bj scf=xqc

CID_69721083_JID_8195_neutraal

0 1
C         -1.65000        0.08400        0.71500
C         -0.97417        1.33846        0.18027
C          0.02907        0.87038       -0.89030
C          1.48884        1.05036       -0.47816
C          1.76428       -0.14552        0.41063
N          0.91612       -1.19616       -0.11411
C         -0.14846       -0.67246       -1.01782
C         -1.55831       -0.90185       -0.44144
C          0.07843       -1.20200       -2.46030
C         -0.94056       -0.81686       -3.50961
C         -2.06146       -1.63035       -3.73368
C         -3.00926       -1.28610       -4.69817
C         -2.84428       -0.12834       -5.45457
C         -1.72849        0.68119       -5.25136
C         -0.77859        0.33663       -4.28774
C          1.11970       -2.48800        0.27850
O          1.97894       -2.88726        1.04786
O          0.26283       -3.36549       -0.26712
H         -2.68492        0.27176        1.01642
H         -1.11203       -0.29708        1.59042
H         -1.72867        1.97659       -0.29642
H         -0.51655        1.92668        0.98192
H         -0.17049        1.42025       -1.81346
H          1.69115        2.00134        0.02289
H          2.12591        0.99843       -1.36972
H          1.46616        0.04493        1.44762
H          2.81650       -0.44648        0.40004
H         -1.74357       -1.92480       -0.10540
H         -2.33673       -0.64400       -1.16694
H          1.07123       -0.88448       -2.80938
H          0.13694       -2.29713       -2.45604
H         -2.20271       -2.53972       -3.15251
H         -3.87484       -1.92313       -4.85958
H         -3.58197        0.13980       -6.20609
H         -1.59542        1.58038       -5.84719
H          0.09176        0.97474       -4.15406
H          0.55497       -4.21408        0.12297

--Link1--
%chk=JID_8195.chk
%mem=8GB
%nprocshared=4
# B3LYP/6-311++G(d,p) empiricaldispersion=gd3bj scf=xqc pop=npa geom=check

CID_69721083_JID_8195_Energie_neutraal

0 1

--Link1--
%chk=JID_8195.chk
%mem=8GB
%nprocshared=4
# B3LYP/6-311++G(d,p) empiricaldispersion=gd3bj scf=xqc pop=npa geom=check

CID_69721083_JID_8195_Energie_kation

1 2

--Link1--
%chk=JID_8195.chk
%mem=8GB
%nprocshared=4
# B3LYP/6-311++G(d,p) empiricaldispersion=gd3bj scf=xqc pop=npa geom=check

CID_69721083_JID_8195_Energie_anion

-1 2
