%chk=JID_3333.chk
%mem=8GB
%nprocshared=4
# opt freq B3LYP/6-31G(d) empiricaldispersion=gd3bj scf=xqc

CID_105163019_JID_3333_neutraal

0 1
C          1.05200       -0.04681        0.07145
C          0.75147        0.33173       -1.37734
C          1.25978       -0.72562       -2.37414
C          0.78184       -2.17178       -2.16116
C         -0.73691       -2.43142       -2.25801
C         -1.39946       -1.96062       -3.58584
C         -1.09889       -2.74764       -4.85344
C         -2.00259       -3.58870       -5.38547
C          0.20302       -2.47950       -5.55365
N         -0.93179       -3.87512       -1.98972
C         -2.29033       -4.18853       -1.57028
O         -0.64789        0.52451       -1.59679
C         -1.17835        1.68250       -0.96719
H          0.39976       -0.85562        0.41647
H          0.87497        0.80248        0.73934
H          2.09628       -0.35055        0.19411
H          1.27114        1.26932       -1.61399
H          1.00043       -0.40855       -3.39029
H          2.35681       -0.73394       -2.32932
H          1.31313       -2.80918       -2.87712
H          1.13430       -2.50730       -1.17622
H         -1.20612       -1.87725       -1.43634
H         -2.48741       -1.96318       -3.42822
H         -1.16460       -0.90679       -3.77326
H         -1.80793       -4.12520       -6.30947
H         -2.96499       -3.76234       -4.91360
H          0.37724       -1.40282       -5.64406
H          1.03913       -2.92981       -5.01484
H          0.21123       -2.89323       -6.56828
H         -0.71489       -4.39652       -2.84023
H         -3.02849       -3.95893       -2.34355
H         -2.36189       -5.25914       -1.35397
H         -2.55518       -3.65311       -0.65295
H         -2.21175        1.80746       -1.30235
H         -1.18730        1.56522        0.11956
H         -0.61193        2.57466       -1.25009

--Link1--
%chk=JID_3333.chk
%mem=8GB
%nprocshared=4
# B3LYP/6-311++G(d,p) empiricaldispersion=gd3bj scf=xqc pop=npa geom=check

CID_105163019_JID_3333_Energie_neutraal

0 1

--Link1--
%chk=JID_3333.chk
%mem=8GB
%nprocshared=4
# B3LYP/6-311++G(d,p) empiricaldispersion=gd3bj scf=xqc pop=npa geom=check

CID_105163019_JID_3333_Energie_kation

1 2

--Link1--
%chk=JID_3333.chk
%mem=8GB
%nprocshared=4
# B3LYP/6-311++G(d,p) empiricaldispersion=gd3bj scf=xqc pop=npa geom=check

CID_105163019_JID_3333_Energie_anion

-1 2
