%chk=JID_9579.chk
%mem=8GB
%nprocshared=4
# opt freq B3LYP/6-31G(d) empiricaldispersion=gd3bj scf=xqc

CID_113581217_JID_9579_neutraal

0 1
C          1.08290        0.03303        0.04513
O          1.48751       -1.01933       -0.83123
C          2.13730       -0.53058       -1.93673
C          1.50745        0.36899       -2.80283
C          2.16425        0.80861       -3.95439
C          3.44255        0.33776       -4.25407
C          4.06522       -0.57800       -3.40522
C          3.41927       -1.00521       -2.24232
O          4.06057       -1.96728       -1.49797
C          4.29623       -1.67368       -0.15618
C          4.35708       -2.77701        0.71036
C          4.53202       -2.50768        2.06481
C          4.71868       -1.19383        2.49193
C          4.69040       -0.17370        1.54316
N          4.49077       -0.38895        0.22157
C          4.84803        1.26083        1.95467
O          5.31452        2.12004        1.21678
N          4.40692        1.60899        3.20992
N          4.03040       -4.09209        0.30678
H          0.95896       -0.39533        1.04449
H          0.11558        0.43741       -0.26942
H          1.82807        0.83427        0.11245
H          0.49919        0.71752       -2.60199
H          1.67432        1.51151       -4.62347
H          3.95128        0.67735       -5.15259
H          5.05549       -0.95461       -3.64529
H          4.54089       -3.32238        2.78409
H          4.89722       -0.98857        3.54107
H          3.78905        1.02421        3.75335
H          4.41439        2.60112        3.41315
H          4.15933       -4.18208       -0.70305
H          3.04880       -4.28082        0.50739

--Link1--
%chk=JID_9579.chk
%mem=8GB
%nprocshared=4
# B3LYP/6-311++G(d,p) empiricaldispersion=gd3bj scf=xqc pop=npa geom=check

CID_113581217_JID_9579_Energie_neutraal

0 1

--Link1--
%chk=JID_9579.chk
%mem=8GB
%nprocshared=4
# B3LYP/6-311++G(d,p) empiricaldispersion=gd3bj scf=xqc pop=npa geom=check

CID_113581217_JID_9579_Energie_kation

1 2

--Link1--
%chk=JID_9579.chk
%mem=8GB
%nprocshared=4
# B3LYP/6-311++G(d,p) empiricaldispersion=gd3bj scf=xqc pop=npa geom=check

CID_113581217_JID_9579_Energie_anion

-1 2
