%chk=JID_9333.chk
%mem=8GB
%nprocshared=4
# opt freq B3LYP/6-31G(d) empiricaldispersion=gd3bj scf=xqc

CID_142113506_JID_9333_neutraal

0 1
C          1.01594        0.05094       -0.08456
C          1.46006       -1.39798        0.23610
C          1.88467       -1.45424        1.73072
C          3.34945       -1.03837        1.97905
C          4.34446       -1.51351        0.89236
C          3.86370       -0.95843       -0.43690
C          2.64799       -1.86190       -0.65587
C          2.23105       -1.98235       -2.13182
O          2.92435       -1.49798       -3.03319
C          0.94494       -2.77435       -2.44379
C         -0.18230       -2.41459       -1.44745
C          0.26168       -2.35594        0.01689
C          1.26509       -4.28023       -2.37250
C          0.48163       -2.47703       -3.89735
N          0.15376       -1.06963       -4.14656
O          3.08041       -3.17575       -0.18906
C          4.28845       -3.02223        0.58977
C          5.46552       -3.49427       -0.28542
C          4.24185       -3.93054        1.82027
H          0.05657        0.27801        0.39520
H          0.89586        0.21985       -1.15905
H          1.72948        0.79406        0.28478
H          1.22334       -0.82969        2.34513
H          1.73958       -2.47090        2.11092
H          3.66533       -1.40271        2.96359
H          3.39543        0.05704        2.03501
H          5.35456       -1.17477        1.14472
H          4.62421       -1.08824       -1.21383
H          3.64385        0.11162       -0.41524
H         -0.62570       -1.44511       -1.70217
H         -1.00023       -3.14129       -1.53833
H         -0.58952       -2.03709        0.63238
H          0.51263       -3.36788        0.35771
H          0.42383       -4.87974       -2.73904
H          2.14225       -4.52524       -2.98268
H          1.47450       -4.61910       -1.35463
H          1.25464       -2.78193       -4.61391
H         -0.41121       -3.07216       -4.12489
H         -0.13373       -0.96768       -5.12020
H          1.02443       -0.53264       -4.07409
H          6.42551       -3.30834        0.20711
H          5.38619       -4.56920       -0.48810
H          5.47995       -3.01891       -1.27034
H          3.35469       -3.77210        2.43543
H          4.19767       -4.98443        1.52057
H          5.12676       -3.78909        2.44946

--Link1--
%chk=JID_9333.chk
%mem=8GB
%nprocshared=4
# B3LYP/6-311++G(d,p) empiricaldispersion=gd3bj scf=xqc pop=npa geom=check

CID_142113506_JID_9333_Energie_neutraal

0 1

--Link1--
%chk=JID_9333.chk
%mem=8GB
%nprocshared=4
# B3LYP/6-311++G(d,p) empiricaldispersion=gd3bj scf=xqc pop=npa geom=check

CID_142113506_JID_9333_Energie_kation

1 2

--Link1--
%chk=JID_9333.chk
%mem=8GB
%nprocshared=4
# B3LYP/6-311++G(d,p) empiricaldispersion=gd3bj scf=xqc pop=npa geom=check

CID_142113506_JID_9333_Energie_anion

-1 2
