%chk=JID_2833.chk
%mem=8GB
%nprocshared=4
# opt freq B3LYP/6-31G(d) empiricaldispersion=gd3bj scf=xqc

CID_63346211_JID_2833_neutraal

0 1
C          1.04433       -0.08726        0.02049
C          0.34146       -0.06064        1.36838
C          0.76064        1.09520        2.19622
N          1.58879        0.97345        3.24150
O          1.70304        2.28218        3.71214
C          0.93232        3.05598        2.89194
N          0.33206        2.37355        1.94319
C          0.89379        4.51921        3.16447
C          0.22003        4.78734        4.51466
C          2.30000        5.15175        3.09438
C          2.97176        4.98603        1.73237
O          2.22324        6.55401        3.37723
H          0.82560        0.81672       -0.55819
H          0.71459       -0.95247       -0.56323
H          2.13093       -0.15207        0.14284
H         -0.74240       -0.01454        1.21113
H          0.54362       -0.99834        1.89952
H          0.26459        4.99475        2.39989
H          0.81366        4.38847        5.34505
H          0.08247        5.86051        4.68248
H         -0.76898        4.31683        4.55860
H          2.94958        4.71358        3.86146
H          2.35235        5.41267        0.93574
H          3.92513        5.52550        1.71145
H          3.16806        3.93574        1.49836
H          1.77775        6.99256        2.63130

--Link1--
%chk=JID_2833.chk
%mem=8GB
%nprocshared=4
# B3LYP/6-311++G(d,p) empiricaldispersion=gd3bj scf=xqc pop=npa geom=check

CID_63346211_JID_2833_Energie_neutraal

0 1

--Link1--
%chk=JID_2833.chk
%mem=8GB
%nprocshared=4
# B3LYP/6-311++G(d,p) empiricaldispersion=gd3bj scf=xqc pop=npa geom=check

CID_63346211_JID_2833_Energie_kation

1 2

--Link1--
%chk=JID_2833.chk
%mem=8GB
%nprocshared=4
# B3LYP/6-311++G(d,p) empiricaldispersion=gd3bj scf=xqc pop=npa geom=check

CID_63346211_JID_2833_Energie_anion

-1 2
