%chk=JID_2981.chk
%mem=8GB
%nprocshared=4
# opt freq B3LYP/6-31G(d) empiricaldispersion=gd3bj scf=xqc

CID_91602411_JID_2981_neutraal

0 1
C          0.91700       -0.04101       -0.03779
C          0.43778       -1.14644        0.88518
C          0.77358       -0.95327        2.37145
C          0.14025        0.26322        3.08772
C          0.86407        1.53832        2.79248
C          0.19382        2.61183        2.37707
N         -1.15009        2.62050        2.17393
C         -1.79561        1.51149        2.33598
O         -1.25175        0.32675        2.71814
S         -3.52374        1.53644        2.03088
C         -3.77529       -0.17681        1.53131
C          0.17927        0.03258        4.60650
H          0.31906        0.86570        0.07612
H          0.81955       -0.35901       -1.08121
H          1.96882        0.20064        0.14289
H         -0.64158       -1.28493        0.75667
H          0.90454       -2.08495        0.55994
H          0.42343       -1.86681        2.87243
H          1.86416       -0.94088        2.49999
H          1.93682        1.59114        2.94683
H          0.71225        3.54656        2.17842
H         -3.11762       -0.43580        0.69698
H         -3.58845       -0.85628        2.36728
H         -4.81103       -0.30896        1.20711
H         -0.39106       -0.86316        4.87970
H          1.20396       -0.08404        4.97640
H         -0.28940        0.86556        5.14487

--Link1--
%chk=JID_2981.chk
%mem=8GB
%nprocshared=4
# B3LYP/6-311++G(d,p) empiricaldispersion=gd3bj scf=xqc pop=npa geom=check

CID_91602411_JID_2981_Energie_neutraal

0 1

--Link1--
%chk=JID_2981.chk
%mem=8GB
%nprocshared=4
# B3LYP/6-311++G(d,p) empiricaldispersion=gd3bj scf=xqc pop=npa geom=check

CID_91602411_JID_2981_Energie_kation

1 2

--Link1--
%chk=JID_2981.chk
%mem=8GB
%nprocshared=4
# B3LYP/6-311++G(d,p) empiricaldispersion=gd3bj scf=xqc pop=npa geom=check

CID_91602411_JID_2981_Energie_anion

-1 2
