%chk=JID_5245.chk
%mem=8GB
%nprocshared=4
# opt freq B3LYP/6-31G(d) empiricaldispersion=gd3bj scf=xqc

CID_114356423_JID_5245_neutraal

0 1
C          0.90667        0.02507       -0.02569
C          0.90245       -0.97611       -1.19078
C          2.23949       -0.95766       -1.94707
C          3.36402       -1.63228       -1.17183
C          2.95062       -3.03402       -0.74850
C          1.60810       -3.03534       -0.01538
N          0.52563       -2.29920       -0.67438
C         -0.38928       -3.08269       -1.54547
C          0.29534       -3.98644       -2.60475
O          0.72674       -5.24066       -2.08242
C         -1.40928       -3.88139       -0.65287
C         -2.29051       -2.92529        0.18821
O         -3.17651       -2.20081       -0.67836
C         -3.90526       -1.21175        0.03691
N         -2.28337       -4.76351       -1.47072
H         -0.07308        0.05195        0.46509
H          1.11716        1.03628       -0.39109
H          1.65571       -0.21516        0.73522
H          0.13240       -0.60632       -1.88010
H          2.11830       -1.46294       -2.91242
H          2.52755        0.07495       -2.17861
H          3.62195       -1.03842       -0.28740
H          4.26619       -1.68176       -1.79192
H          3.72188       -3.45750       -0.09436
H          2.90780       -3.68125       -1.62992
H          1.76465       -2.57556        0.96913
H          1.31843       -4.06665        0.21208
H         -0.98884       -2.36546       -2.12273
H         -0.40513       -4.19665       -3.42205
H          1.14960       -3.48922       -3.06923
H         -0.09933       -5.71679       -1.86460
H         -0.85999       -4.52986        0.03904
H         -2.89634       -3.50785        0.89334
H         -1.67501       -2.22787        0.76696
H         -4.50274       -1.67302        0.82900
H         -3.22382       -0.46815        0.46150
H         -4.57848       -0.70809       -0.66183
H         -2.92289       -5.25035       -0.84039
H         -2.90271       -4.13398       -1.99582

--Link1--
%chk=JID_5245.chk
%mem=8GB
%nprocshared=4
# B3LYP/6-311++G(d,p) empiricaldispersion=gd3bj scf=xqc pop=npa geom=check

CID_114356423_JID_5245_Energie_neutraal

0 1

--Link1--
%chk=JID_5245.chk
%mem=8GB
%nprocshared=4
# B3LYP/6-311++G(d,p) empiricaldispersion=gd3bj scf=xqc pop=npa geom=check

CID_114356423_JID_5245_Energie_kation

1 2

--Link1--
%chk=JID_5245.chk
%mem=8GB
%nprocshared=4
# B3LYP/6-311++G(d,p) empiricaldispersion=gd3bj scf=xqc pop=npa geom=check

CID_114356423_JID_5245_Energie_anion

-1 2
