%chk=JID_2515.chk
%mem=8GB
%nprocshared=4
# opt freq B3LYP/6-31G(d) empiricaldispersion=gd3bj scf=xqc

CID_57469817_JID_2515_neutraal

0 1
C          0.96579        0.03096        0.08872
C          0.62917       -1.44905       -0.00234
C          0.98895       -2.23420        1.26089
C          0.24075       -1.82070        2.53638
C         -1.30563       -1.89481        2.48246
C         -1.76294       -3.29808        2.04387
C         -1.94078       -1.53592        3.86130
C         -1.47417       -0.21221        4.49975
C         -1.68424        1.03042        3.64419
C         -3.45954       -1.54697        3.84805
O         -4.17325       -1.90266        4.77280
O         -4.00904       -1.04966        2.72566
H          0.35617        0.53523        0.84290
H          0.77472        0.51914       -0.87236
H          2.02072        0.17975        0.33974
H         -0.43235       -1.56928       -0.24280
H          1.18689       -1.87857       -0.84347
H          0.82978       -3.30199        1.07134
H          2.06532       -2.12644        1.44738
H          0.59676       -2.46084        3.35449
H          0.55425       -0.80345        2.79319
H         -1.66242       -1.18075        1.73081
H         -1.36800       -4.06798        2.71550
H         -2.85335       -3.38758        2.03581
H         -1.42792       -3.52823        1.02814
H         -1.65706       -2.34086        4.55555
H         -2.00662       -0.06348        5.44839
H         -0.41318       -0.28539        4.76490
H         -2.74489        1.20218        3.44003
H         -1.30430        1.91192        4.17124
H         -1.15568        0.96286        2.69058
H         -4.97336       -1.09437        2.89523

--Link1--
%chk=JID_2515.chk
%mem=8GB
%nprocshared=4
# B3LYP/6-311++G(d,p) empiricaldispersion=gd3bj scf=xqc pop=npa geom=check

CID_57469817_JID_2515_Energie_neutraal

0 1

--Link1--
%chk=JID_2515.chk
%mem=8GB
%nprocshared=4
# B3LYP/6-311++G(d,p) empiricaldispersion=gd3bj scf=xqc pop=npa geom=check

CID_57469817_JID_2515_Energie_kation

1 2

--Link1--
%chk=JID_2515.chk
%mem=8GB
%nprocshared=4
# B3LYP/6-311++G(d,p) empiricaldispersion=gd3bj scf=xqc pop=npa geom=check

CID_57469817_JID_2515_Energie_anion

-1 2
