%chk=JID_7498.chk
%mem=8GB
%nprocshared=4
# opt freq B3LYP/6-31G(d) empiricaldispersion=gd3bj scf=xqc

CID_21029739_JID_7498_neutraal

0 1
C          1.08800       -0.08700       -1.46100
C          0.20430       -0.41140       -0.25979
O         -1.04110       -0.95766       -0.71333
C         -1.94063        0.14991       -0.69537
C         -1.47440        0.97139        0.48488
O         -0.04516        0.80465        0.46126
C         -2.05858        0.45669        1.81064
O         -1.89408        1.37838        2.89860
C         -0.53270        1.56817        3.28355
C         -0.48975        2.22360        4.66083
C         -1.13185        1.36668        5.75235
N         -0.45132        0.09652        5.95176
C          0.76090       -0.14563        6.52113
O          1.33859       -1.21213        6.33450
C          1.41018        0.91456        7.31924
C          0.84224        1.42550        8.41845
C          0.89007       -1.41895        0.65361
H          1.27231       -0.97816       -2.07005
H          0.60822        0.65444       -2.10974
H          2.04658        0.33788       -1.14475
H         -2.97540       -0.19597       -0.62463
H         -1.82052        0.70098       -1.63491
H         -1.70949        2.03379        0.36450
H         -3.14051        0.32453        1.70201
H         -1.63826       -0.51010        2.10544
H          0.00367        0.61281        3.29724
H         -0.04922        2.23650        2.56381
H          0.55146        2.44905        4.91698
H         -1.03212        3.17611        4.61827
H         -1.14328        1.92367        6.69239
H         -2.17282        1.13396        5.50363
H         -0.77461       -0.68520        5.39447
H          2.42113        1.17071        7.02643
H          1.36732        2.15882        9.02117
H         -0.14015        1.10664        8.75308
H          0.25307       -1.66971        1.50797
H          1.09812       -2.35554        0.12559
H          1.82555       -1.01716        1.05684

--Link1--
%chk=JID_7498.chk
%mem=8GB
%nprocshared=4
# B3LYP/6-311++G(d,p) empiricaldispersion=gd3bj scf=xqc pop=npa geom=check

CID_21029739_JID_7498_Energie_neutraal

0 1

--Link1--
%chk=JID_7498.chk
%mem=8GB
%nprocshared=4
# B3LYP/6-311++G(d,p) empiricaldispersion=gd3bj scf=xqc pop=npa geom=check

CID_21029739_JID_7498_Energie_kation

1 2

--Link1--
%chk=JID_7498.chk
%mem=8GB
%nprocshared=4
# B3LYP/6-311++G(d,p) empiricaldispersion=gd3bj scf=xqc pop=npa geom=check

CID_21029739_JID_7498_Energie_anion

-1 2
