%chk=JID_7772.chk
%mem=8GB
%nprocshared=4
# opt freq B3LYP/6-31G(d) empiricaldispersion=gd3bj scf=xqc

CID_66322465_JID_7772_neutraal

0 1
C          0.94096       -0.06020        0.05376
C          0.28536       -1.38603        0.41229
N          0.93017       -1.89007        1.61742
C          0.23808       -3.00002        2.33648
C          0.19324       -4.22747        1.40343
C          1.05760       -3.36928        3.61234
O          0.95949       -2.50420        4.74717
C          1.37940       -1.15116        4.60577
C          2.86452       -0.92858        4.89891
C          3.85219       -1.62711        3.96814
C          5.13843       -0.84619        4.18338
C          4.67361        0.59986        4.23976
C          3.25069        0.55691        4.79862
C         -1.18689       -2.60896        2.80722
O         -1.63802       -1.47060        2.87220
O         -1.89749       -3.72568        3.15875
C         -3.22185       -3.45083        3.61612
H          0.81473        0.67503        0.85613
H          0.48608        0.35076       -0.85338
H          2.01313       -0.18257       -0.13508
H         -0.78591       -1.21491        0.54789
H          0.41124       -2.08940       -0.41763
H          1.88910       -2.15885        1.40306
H          1.18568       -4.45898        0.99908
H         -0.15384       -5.12367        1.93087
H         -0.49284       -4.07184        0.56323
H          0.70643       -4.34218        3.97938
H          2.10982       -3.52816        3.35874
H          1.08106       -0.71413        3.65372
H          0.81239       -0.59150        5.36021
H          3.06929       -1.27968        5.91986
H          3.98723       -2.68316        4.21794
H          3.53914       -1.54740        2.92191
H          5.86892       -1.01800        3.38757
H          5.59918       -1.13090        5.13670
H          4.65839        1.02708        3.22975
H          5.33842        1.21963        4.84894
H          2.57935        1.11234        4.13296
H          3.19809        1.03470        5.78286
H         -3.19593       -2.83220        4.51842
H         -3.80683       -2.96642        2.82786
H         -3.69887       -4.40342        3.86268

--Link1--
%chk=JID_7772.chk
%mem=8GB
%nprocshared=4
# B3LYP/6-311++G(d,p) empiricaldispersion=gd3bj scf=xqc pop=npa geom=check

CID_66322465_JID_7772_Energie_neutraal

0 1

--Link1--
%chk=JID_7772.chk
%mem=8GB
%nprocshared=4
# B3LYP/6-311++G(d,p) empiricaldispersion=gd3bj scf=xqc pop=npa geom=check

CID_66322465_JID_7772_Energie_kation

1 2

--Link1--
%chk=JID_7772.chk
%mem=8GB
%nprocshared=4
# B3LYP/6-311++G(d,p) empiricaldispersion=gd3bj scf=xqc pop=npa geom=check

CID_66322465_JID_7772_Energie_anion

-1 2
