%chk=JID_9364.chk
%mem=8GB
%nprocshared=4
# opt freq B3LYP/6-31G(d) empiricaldispersion=gd3bj scf=xqc

CID_62148591_JID_9364_neutraal

0 1
C          0.98220       -0.09619        0.02074
C         -0.46260       -0.45213       -0.32399
C         -1.24171        0.72310       -0.91545
C         -0.91699        0.98158       -2.37759
C         -1.15147       -0.28439       -3.18574
C         -0.34923       -1.47730       -2.66881
N         -0.50857       -1.67938       -1.18953
S         -1.70241       -2.84027       -0.76676
O         -2.96917       -2.14595       -0.67049
O         -1.54684       -4.00041       -1.61769
C         -1.21895       -3.33871        0.84741
C         -0.00378       -3.97059        1.01357
N          0.45903       -4.38276        2.21962
C         -0.32178       -4.18452        3.30342
C         -1.56248       -3.55120        3.20209
C         -2.02470       -3.12610        1.95754
N          0.11882       -4.56522        4.58219
C          1.39192       -5.26809        4.59167
C          1.13015       -1.41667       -3.04354
H          1.00557        0.63445        0.83706
H          1.52136        0.34972       -0.81665
H          1.53718       -0.98151        0.34890
H         -0.93250       -0.68068        0.63962
H         -2.31652        0.51827       -0.83004
H         -1.05679        1.63201       -0.33057
H          0.11613        1.32706       -2.48879
H         -1.55933        1.78372       -2.75885
H         -0.91495       -0.09786       -4.23998
H         -2.22052       -0.53151       -3.14693
H         -0.73157       -2.36063       -3.19406
H          0.65860       -4.16677        0.17442
H         -2.16223       -3.37954        4.09049
H         -2.99004       -2.63551        1.86956
H         -0.61171       -5.10449        5.03762
H          1.64765       -5.52460        5.62482
H          1.34103       -6.20254        4.02184
H          2.20102       -4.64061        4.20206
H          1.68561       -2.23748       -2.57719
H          1.24780       -1.50727       -4.12922
H          1.60590       -0.47893       -2.75240

--Link1--
%chk=JID_9364.chk
%mem=8GB
%nprocshared=4
# B3LYP/6-311++G(d,p) empiricaldispersion=gd3bj scf=xqc pop=npa geom=check

CID_62148591_JID_9364_Energie_neutraal

0 1

--Link1--
%chk=JID_9364.chk
%mem=8GB
%nprocshared=4
# B3LYP/6-311++G(d,p) empiricaldispersion=gd3bj scf=xqc pop=npa geom=check

CID_62148591_JID_9364_Energie_kation

1 2

--Link1--
%chk=JID_9364.chk
%mem=8GB
%nprocshared=4
# B3LYP/6-311++G(d,p) empiricaldispersion=gd3bj scf=xqc pop=npa geom=check

CID_62148591_JID_9364_Energie_anion

-1 2
