%chk=JID_9356.chk
%mem=8GB
%nprocshared=4
# opt freq B3LYP/6-31G(d) empiricaldispersion=gd3bj scf=xqc

CID_10061426_JID_9356_neutraal

0 1
C          0.94275        0.05540        0.06044
C          0.70647        0.57392        1.47302
C          1.41998        1.89488        1.76146
C          0.72234        3.07364        1.10916
O         -0.29454        3.55189        1.61976
N          1.09191        3.53244       -0.12618
C          2.15805        3.14660       -0.95751
C          3.51132        3.04745       -0.59604
C          4.46561        2.51761       -1.48085
C          4.07220        2.10506       -2.75796
C          2.74590        2.29441       -3.16347
C          1.80511        2.83031       -2.27689
C          5.09085        1.48460       -3.64430
O          6.28873        1.52591       -3.41912
O          4.48672        0.83557       -4.66870
C          5.38867        0.12394       -5.51792
N          4.01490        3.61997        0.64675
O          4.86802        2.96550        1.26200
O          3.57468        4.72279        0.99295
H          0.44871        0.68888       -0.68061
H          0.52539       -0.95170       -0.04155
H          2.01085        0.00192       -0.17121
H         -0.37149        0.67411        1.64528
H          1.07487       -0.17893        2.18019
H          1.40843        2.08453        2.84215
H          2.46614        1.80741        1.48553
H          0.32879        4.05297       -0.54869
H          5.51116        2.43308       -1.18342
H          2.42316        2.01187       -4.16412
H          0.77314        2.92724       -2.61257
H          6.05702        0.82090       -6.03217
H          5.96041       -0.61148       -4.94277
H          4.79713       -0.40973       -6.26698

--Link1--
%chk=JID_9356.chk
%mem=8GB
%nprocshared=4
# B3LYP/6-311++G(d,p) empiricaldispersion=gd3bj scf=xqc pop=npa geom=check

CID_10061426_JID_9356_Energie_neutraal

0 1

--Link1--
%chk=JID_9356.chk
%mem=8GB
%nprocshared=4
# B3LYP/6-311++G(d,p) empiricaldispersion=gd3bj scf=xqc pop=npa geom=check

CID_10061426_JID_9356_Energie_kation

1 2

--Link1--
%chk=JID_9356.chk
%mem=8GB
%nprocshared=4
# B3LYP/6-311++G(d,p) empiricaldispersion=gd3bj scf=xqc pop=npa geom=check

CID_10061426_JID_9356_Energie_anion

-1 2
