%chk=JID_4480.chk
%mem=8GB
%nprocshared=4
# opt freq B3LYP/6-31G(d) empiricaldispersion=gd3bj scf=xqc

CID_145532883_JID_4480_neutraal

0 1
C          0.93960       -0.07947        0.00603
C          0.66605        0.84733        1.18330
C          0.83136        2.34173        0.84340
C         -0.14234        2.85234       -0.25008
S         -1.88395        3.05020        0.29672
C         -2.62672        1.51490       -0.34396
C         -2.81849        1.55583       -1.84962
N          0.72229        3.08453        2.11446
O          1.05781        4.47742        1.82024
C          2.14897        4.90585        2.54054
O          2.81166        4.24700        3.33447
C          2.41829        6.36724        2.26989
C          2.42990        6.71677        0.78820
S          0.79506        7.24175        0.17785
H          0.19683        0.03498       -0.78741
H          0.90825       -1.12262        0.33720
H          1.93067        0.10916       -0.41864
H         -0.33316        0.64278        1.58461
H          1.37423        0.58295        1.98046
H          1.85361        2.47390        0.46400
H          0.18144        3.85181       -0.56226
H         -0.08686        2.23508       -1.14953
H         -2.02730        0.65029       -0.05086
H         -3.60446        1.40358        0.13621
H         -1.86686        1.61394       -2.38574
H         -3.32384        0.64282       -2.18226
H         -3.44002        2.40539       -2.15169
H         -0.26727        3.16411        2.36667
H          1.71990        6.97708        2.85270
H          3.42327        6.56543        2.66489
H          3.10774        7.56000        0.62011
H          2.78115        5.87954        0.17632
H          0.14075        6.09673        0.43002

--Link1--
%chk=JID_4480.chk
%mem=8GB
%nprocshared=4
# B3LYP/6-311++G(d,p) empiricaldispersion=gd3bj scf=xqc pop=npa geom=check

CID_145532883_JID_4480_Energie_neutraal

0 1

--Link1--
%chk=JID_4480.chk
%mem=8GB
%nprocshared=4
# B3LYP/6-311++G(d,p) empiricaldispersion=gd3bj scf=xqc pop=npa geom=check

CID_145532883_JID_4480_Energie_kation

1 2

--Link1--
%chk=JID_4480.chk
%mem=8GB
%nprocshared=4
# B3LYP/6-311++G(d,p) empiricaldispersion=gd3bj scf=xqc pop=npa geom=check

CID_145532883_JID_4480_Energie_anion

-1 2
