%chk=JID_10299.chk
%mem=8GB
%nprocshared=4
# opt freq B3LYP/6-31G(d) empiricaldispersion=gd3bj scf=xqc

CID_105022245_JID_10299_neutraal

0 1
C          0.97931        0.00295        0.09779
C          0.31178       -1.33810        0.36991
C          0.91512       -2.09378        1.55816
N          0.67663       -1.38621        2.81566
C          1.21827       -2.11354        3.96906
C          2.73709       -2.08016        4.06175
C          3.45062       -3.29171        4.11367
C          4.84743       -3.31737        4.19415
C          5.55047       -2.11506        4.20449
C          4.86288       -0.90080        4.15109
C          3.46961       -0.88163        4.08243
O          5.38699       -4.57231        4.23768
C          6.77682       -4.71116        4.52872
C          7.59251       -4.73435        3.24802
C          0.72020       -1.50430        5.25115
C          0.67610       -2.13106        6.48509
O          0.16973       -1.31173        7.43881
C         -0.13144       -0.13358        6.83038
C          0.17838       -0.20189        5.49034
C         -0.70891        0.91720        7.68995
H          0.80701        0.71229        0.91267
H          0.57217        0.44527       -0.81716
H          2.05924       -0.11610       -0.03543
H         -0.76282       -1.18494        0.52717
H          0.41214       -1.96416       -0.52501
H          0.44917       -3.08548        1.60136
H          1.98734       -2.23747        1.38143
H          1.10771       -0.46742        2.78025
H          0.85726       -3.15066        3.93790
H          2.91499       -4.23925        4.09622
H          6.63334       -2.08261        4.24618
H          5.41592        0.03518        4.16509
H          2.95986        0.07844        4.05439
H          7.13738       -3.96048        5.24073
H          6.89292       -5.67892        5.02995
H          7.49863       -3.79439        2.69625
H          8.65029       -4.90631        3.46655
H          7.23737       -5.52849        2.58282
H          0.96418       -3.11557        6.82693
H          0.02832        0.58692        4.76659
H         -1.73779        0.66378        7.96249
H         -0.12496        1.02880        8.60879
H         -0.71843        1.88294        7.17525

--Link1--
%chk=JID_10299.chk
%mem=8GB
%nprocshared=4
# B3LYP/6-311++G(d,p) empiricaldispersion=gd3bj scf=xqc pop=npa geom=check

CID_105022245_JID_10299_Energie_neutraal

0 1

--Link1--
%chk=JID_10299.chk
%mem=8GB
%nprocshared=4
# B3LYP/6-311++G(d,p) empiricaldispersion=gd3bj scf=xqc pop=npa geom=check

CID_105022245_JID_10299_Energie_kation

1 2

--Link1--
%chk=JID_10299.chk
%mem=8GB
%nprocshared=4
# B3LYP/6-311++G(d,p) empiricaldispersion=gd3bj scf=xqc pop=npa geom=check

CID_105022245_JID_10299_Energie_anion

-1 2
