%chk=JID_9014.chk
%mem=8GB
%nprocshared=4
# opt freq B3LYP/6-31G(d) empiricaldispersion=gd3bj scf=xqc

CID_111331352_JID_9014_neutraal

0 1
C          0.97249       -0.09605        0.00427
C          0.50498       -0.59651        1.37286
C          1.07357        0.28166        2.48777
C         -0.99961       -0.62147        1.44401
N         -1.77417        0.39361        1.12253
C         -3.10915        0.05699        1.28734
C         -3.32284       -1.22471        1.75849
S         -1.82827       -2.03196        1.97494
C         -4.14366        1.08210        0.97158
C         -5.06714        0.63079       -0.14072
O         -6.17587        0.14784        0.10237
N         -4.68958        0.75849       -1.44599
C         -3.41077        1.19602       -1.98859
C         -2.69323        0.14734       -2.86253
C         -3.46006       -0.23033       -4.13251
C         -2.80525       -1.53049       -4.59387
C         -2.25878       -2.19805       -3.33264
C         -2.48008       -1.20918       -2.18545
O         -1.42641        0.70684       -3.23974
H          0.61786        0.92066       -0.19969
H          0.60381       -0.74490       -0.79707
H          2.06636       -0.08811       -0.05162
H          0.90054       -1.61156        1.50684
H          0.73177        1.31906        2.39741
H          0.76323       -0.08511        3.47262
H          2.16848        0.28316        2.46053
H         -4.26405       -1.71252        1.97243
H         -4.75457        1.27028        1.86307
H         -3.69104        2.04421        0.71048
H         -5.41393        0.47659       -2.09528
H         -3.61699        2.08959       -2.59001
H         -2.74082        1.52227       -1.18961
H         -4.51868       -0.41967       -3.92436
H         -3.39078        0.53617       -4.91121
H         -1.98262       -1.31683       -5.28649
H         -3.51609       -2.17382       -5.12195
H         -1.19237       -2.41912       -3.45494
H         -2.76542       -3.14756       -3.12986
H         -1.62252       -1.21130       -1.50856
H         -3.36524       -1.52364       -1.62200
H         -0.87532        0.00804       -3.63002

--Link1--
%chk=JID_9014.chk
%mem=8GB
%nprocshared=4
# B3LYP/6-311++G(d,p) empiricaldispersion=gd3bj scf=xqc pop=npa geom=check

CID_111331352_JID_9014_Energie_neutraal

0 1

--Link1--
%chk=JID_9014.chk
%mem=8GB
%nprocshared=4
# B3LYP/6-311++G(d,p) empiricaldispersion=gd3bj scf=xqc pop=npa geom=check

CID_111331352_JID_9014_Energie_kation

1 2

--Link1--
%chk=JID_9014.chk
%mem=8GB
%nprocshared=4
# B3LYP/6-311++G(d,p) empiricaldispersion=gd3bj scf=xqc pop=npa geom=check

CID_111331352_JID_9014_Energie_anion

-1 2
