%chk=JID_7632.chk
%mem=8GB
%nprocshared=4
# opt freq B3LYP/6-31G(d) empiricaldispersion=gd3bj scf=xqc

CID_68605903_JID_7632_neutraal

0 1
C          0.93246        0.05105        0.05322
C          0.56333       -0.25329       -1.38018
N          0.30099       -1.47817       -1.68230
C         -0.03856       -1.79558       -3.08221
C         -0.30779       -0.54500       -3.99459
C          0.03300        0.65984       -3.51304
N          0.53954        0.80261       -2.25610
N         -0.89228       -0.70534       -5.25262
C          1.05946       -2.74054       -3.63957
C          1.82980       -2.44283       -4.77960
C          2.77382       -3.34347       -5.29115
C          2.99937       -4.55017       -4.63365
C          2.28310       -4.85408       -3.47685
C          1.32787       -3.96116       -2.98659
O          3.40742       -2.92122       -6.42905
C          4.17911       -3.89227       -7.12544
N         -1.30789       -2.53038       -3.01223
H          0.60151       -0.75493        0.71421
H          0.46478        0.98707        0.37117
H          2.01909        0.15074        0.12669
H         -0.11471        1.58036       -4.06520
H          0.64775        1.74665       -1.90629
H         -0.66510        0.02812       -5.91557
H         -0.78081       -1.64511       -5.62380
H          1.70748       -1.49773       -5.30187
H          3.73472       -5.26595       -4.98409
H          2.46971       -5.78716       -2.95132
H          0.79316       -4.21609       -2.07338
H          5.06505       -4.17725       -6.54916
H          3.57580       -4.76936       -7.38381
H          4.52168       -3.43860       -8.06055
H         -1.38759       -3.10330       -3.84312
H         -1.22348       -3.14545       -2.21184

--Link1--
%chk=JID_7632.chk
%mem=8GB
%nprocshared=4
# B3LYP/6-311++G(d,p) empiricaldispersion=gd3bj scf=xqc pop=npa geom=check

CID_68605903_JID_7632_Energie_neutraal

0 1

--Link1--
%chk=JID_7632.chk
%mem=8GB
%nprocshared=4
# B3LYP/6-311++G(d,p) empiricaldispersion=gd3bj scf=xqc pop=npa geom=check

CID_68605903_JID_7632_Energie_kation

1 2

--Link1--
%chk=JID_7632.chk
%mem=8GB
%nprocshared=4
# B3LYP/6-311++G(d,p) empiricaldispersion=gd3bj scf=xqc pop=npa geom=check

CID_68605903_JID_7632_Energie_anion

-1 2
