%chk=JID_5623.chk
%mem=8GB
%nprocshared=4
# opt freq B3LYP/6-31G(d) empiricaldispersion=gd3bj scf=xqc

CID_12553576_JID_5623_neutraal

0 1
C          0.94943       -0.06940        0.05125
C          0.33154       -0.38527        1.41319
C          0.77597        0.62670        2.47387
C         -1.19416       -0.56878        1.36400
C         -1.75744       -1.78499        1.53003
C         -0.99743       -3.08999        1.70262
N         -0.36695       -4.17259        1.84580
N         -2.02002        0.56112        1.24358
C         -1.84306        1.59018        0.27279
C         -1.59083        2.89263        0.72576
C         -1.52948        3.95851       -0.17109
C         -1.76817        3.73881       -1.52455
C         -2.06080        2.45265       -1.98286
C         -2.06176        1.36099       -1.10579
N         -2.52124        0.10940       -1.57226
H          0.77194        0.96364       -0.25929
H          0.56494       -0.73852       -0.72582
H          2.03656       -0.20361        0.09200
H          0.78661       -1.33331        1.72574
H          0.52181        1.65361        2.20017
H          0.31720        0.40738        3.44413
H          1.86327        0.58672        2.60456
H         -2.83481       -1.91026        1.54206
H         -3.00966        0.30860        1.18873
H         -1.45111        3.07684        1.78785
H         -1.32381        4.96222        0.19136
H         -1.75363        4.57244       -2.22194
H         -2.29534        2.30980       -3.03436
H         -2.33625       -0.02885       -2.56152
H         -2.13676       -0.64742       -1.01602

--Link1--
%chk=JID_5623.chk
%mem=8GB
%nprocshared=4
# B3LYP/6-311++G(d,p) empiricaldispersion=gd3bj scf=xqc pop=npa geom=check

CID_12553576_JID_5623_Energie_neutraal

0 1

--Link1--
%chk=JID_5623.chk
%mem=8GB
%nprocshared=4
# B3LYP/6-311++G(d,p) empiricaldispersion=gd3bj scf=xqc pop=npa geom=check

CID_12553576_JID_5623_Energie_kation

1 2

--Link1--
%chk=JID_5623.chk
%mem=8GB
%nprocshared=4
# B3LYP/6-311++G(d,p) empiricaldispersion=gd3bj scf=xqc pop=npa geom=check

CID_12553576_JID_5623_Energie_anion

-1 2
