%chk=JID_6525.chk
%mem=8GB
%nprocshared=4
# opt freq B3LYP/6-31G(d) empiricaldispersion=gd3bj scf=xqc

CID_107133800_JID_6525_neutraal

0 1
C          2.49600       -0.00700       -0.12600
C          0.99954        0.18330        0.12321
C          0.34963        0.91733       -1.04400
C         -1.11059        1.18381       -0.73012
C         -1.89070       -0.09564       -0.43534
C         -1.23044       -1.14769        0.51961
C          0.31596       -1.17061        0.34908
C         -1.75691       -2.55356       -0.01258
N         -1.16684       -3.72173        0.64774
C         -1.73093       -1.06314        2.02684
C         -1.31123       -0.00704        3.07936
C         -1.73351        1.45129        2.83674
C         -0.56872        2.39529        3.08403
S          0.45502        1.54221        4.29413
C          0.12464       -0.08904        3.59078
O         -3.17647       -1.08860        2.03030
H          2.67916       -0.60499       -1.02518
H          2.99348        0.95988       -0.25644
H          2.96854       -0.51426        0.72174
H          0.89434        0.80589        1.01311
H          0.85989        1.87102       -1.22427
H          0.43448        0.32950       -1.96649
H         -1.57521        1.69595       -1.58164
H         -1.17205        1.88307        0.10443
H         -2.04956       -0.56474       -1.41676
H         -2.89632        0.17328       -0.09627
H          0.55882       -1.78392       -0.53151
H          0.77973       -1.69553        1.19243
H         -2.84705       -2.60856        0.09090
H         -1.54944       -2.65087       -1.08602
H         -1.66383       -4.55882        0.34339
H         -0.20273       -3.84319        0.34220
H         -1.44513       -2.01378        2.49524
H         -1.91723       -0.28854        3.95988
H         -2.53650        1.70111        3.54574
H         -2.17917        1.61534        1.85665
H          0.01106        2.56385        2.17314
H         -0.90376        3.36520        3.46192
H          0.23207       -0.86072        4.35956
H          0.86587       -0.28721        2.82323
H         -3.50913       -0.18481        1.91195

--Link1--
%chk=JID_6525.chk
%mem=8GB
%nprocshared=4
# B3LYP/6-311++G(d,p) empiricaldispersion=gd3bj scf=xqc pop=npa geom=check

CID_107133800_JID_6525_Energie_neutraal

0 1

--Link1--
%chk=JID_6525.chk
%mem=8GB
%nprocshared=4
# B3LYP/6-311++G(d,p) empiricaldispersion=gd3bj scf=xqc pop=npa geom=check

CID_107133800_JID_6525_Energie_kation

1 2

--Link1--
%chk=JID_6525.chk
%mem=8GB
%nprocshared=4
# B3LYP/6-311++G(d,p) empiricaldispersion=gd3bj scf=xqc pop=npa geom=check

CID_107133800_JID_6525_Energie_anion

-1 2
