%chk=JID_5789.chk
%mem=8GB
%nprocshared=4
# opt freq B3LYP/6-31G(d) empiricaldispersion=gd3bj scf=xqc

CID_114474508_JID_5789_neutraal

0 1
C          0.91534        0.05290        0.00587
C          0.27125       -0.48228        1.25243
C         -0.69087        0.21348        1.88207
C          0.79038       -1.78646        1.81873
C          0.26758       -3.05496        1.12691
C          0.96343       -3.45077       -0.19571
C          2.48753       -3.72491       -0.05271
C          2.88953       -4.86820        0.85204
C          2.99628       -6.17181        0.35807
C          3.36525       -7.18952        1.22526
N          3.63607       -7.00083        2.53309
C          3.53879       -5.73571        2.99133
C          3.17804       -4.65303        2.20257
N          0.20064       -4.58670       -0.75086
C          0.44955       -4.81898       -2.16412
H          0.70670        1.11959       -0.13261
H          0.54422       -0.46983       -0.87895
H          2.00320       -0.05934        0.05429
H         -1.15068       -0.14892        2.79686
H         -1.05302        1.16213        1.49678
H          1.88359       -1.75811        1.84670
H          0.48754       -1.85120        2.87342
H          0.35079       -3.88759        1.83798
H         -0.80966       -2.93076        0.94612
H          0.84873       -2.61269       -0.88972
H          2.91785       -3.90867       -1.04626
H          2.99542       -2.81321        0.28533
H          2.80147       -6.40026       -0.68406
H          3.45649       -8.21454        0.87751
H          3.76739       -5.60703        4.04549
H          3.12916       -3.66421        2.64451
H          0.38859       -5.43011       -0.20910
H          1.48278       -5.11625       -2.36213
H         -0.19902       -5.62721       -2.51641
H          0.21392       -3.93098       -2.75948

--Link1--
%chk=JID_5789.chk
%mem=8GB
%nprocshared=4
# B3LYP/6-311++G(d,p) empiricaldispersion=gd3bj scf=xqc pop=npa geom=check

CID_114474508_JID_5789_Energie_neutraal

0 1

--Link1--
%chk=JID_5789.chk
%mem=8GB
%nprocshared=4
# B3LYP/6-311++G(d,p) empiricaldispersion=gd3bj scf=xqc pop=npa geom=check

CID_114474508_JID_5789_Energie_kation

1 2

--Link1--
%chk=JID_5789.chk
%mem=8GB
%nprocshared=4
# B3LYP/6-311++G(d,p) empiricaldispersion=gd3bj scf=xqc pop=npa geom=check

CID_114474508_JID_5789_Energie_anion

-1 2
