%chk=JID_4863.chk
%mem=8GB
%nprocshared=4
# opt freq B3LYP/6-31G(d) empiricaldispersion=gd3bj scf=xqc

CID_13358837_JID_4863_neutraal

0 1
C          0.92971       -0.01593        0.06932
N         -0.01278        0.19722       -1.02181
C          0.14303        1.46688       -1.75201
C         -1.00821        1.71693       -2.74751
N         -1.11239        0.60335       -3.69890
C         -0.90987       -0.68828       -3.17298
C         -1.21928       -1.82807       -3.94623
C         -1.04046       -3.12528       -3.46446
C         -0.54460       -3.32056       -2.18750
C         -0.21178       -2.21879       -1.39930
C         -0.35306       -0.89282       -1.86343
C         -1.92634        0.81256       -4.88744
C         -2.34556        1.92510       -2.06728
C         -3.11123        3.01921       -2.18640
H          0.50737       -0.67180        0.83751
H          1.15803        0.93098        0.57188
H          1.87459       -0.43439       -0.29471
H          1.10076        1.45576       -2.29057
H          0.18562        2.29761       -1.03615
H         -0.74761        2.62535       -3.30748
H         -1.61399       -1.72782       -4.95188
H         -1.29721       -3.97641       -4.08858
H         -0.41561       -4.32618       -1.79771
H          0.15936       -2.42325       -0.40071
H         -1.47922        0.32716       -5.76143
H         -2.94519        0.43645       -4.74332
H         -1.99688        1.87804       -5.13463
H         -2.68551        1.10630       -1.43535
H         -4.05965        3.08595       -1.66217
H         -2.81679        3.85969       -2.80595

--Link1--
%chk=JID_4863.chk
%mem=8GB
%nprocshared=4
# B3LYP/6-311++G(d,p) empiricaldispersion=gd3bj scf=xqc pop=npa geom=check

CID_13358837_JID_4863_Energie_neutraal

0 1

--Link1--
%chk=JID_4863.chk
%mem=8GB
%nprocshared=4
# B3LYP/6-311++G(d,p) empiricaldispersion=gd3bj scf=xqc pop=npa geom=check

CID_13358837_JID_4863_Energie_kation

1 2

--Link1--
%chk=JID_4863.chk
%mem=8GB
%nprocshared=4
# B3LYP/6-311++G(d,p) empiricaldispersion=gd3bj scf=xqc pop=npa geom=check

CID_13358837_JID_4863_Energie_anion

-1 2
