%chk=JID_10123.chk
%mem=8GB
%nprocshared=4
# opt freq B3LYP/6-31G(d) empiricaldispersion=gd3bj scf=xqc

CID_4328824_JID_10123_neutraal

0 1
C          0.96911       -0.06357        0.07074
C          1.56457        0.68660        1.25262
C          1.78758        2.14299        0.93672
C          0.78236        3.08937        1.17402
C          0.95775        4.46490        0.86003
C          2.18899        4.87551        0.31559
C          3.17159        3.92558        0.07777
C          2.98578        2.57364        0.37428
N          2.47176        6.15451        0.01593
C          1.55532        7.11869        0.25544
C          0.30975        6.82287        0.77590
C          0.00320        5.48991        1.06381
C         -1.35449        5.26011        1.60029
O         -1.94325        5.99848        2.36834
O         -1.96319        4.20005        1.04411
C          1.91792        8.53896       -0.09602
C          3.28550        8.98654        0.42195
C          3.55951       10.25465       -0.37523
C          2.89905       10.03437       -1.73604
C          2.04027        8.77678       -1.60229
H          0.00099        0.35805       -0.22028
H          0.81691       -1.11635        0.32876
H          1.63023       -0.02005       -0.80143
H          0.90239        0.59431        2.12212
H          2.51467        0.22316        1.54529
H         -0.15127        2.74459        1.61321
H          4.11796        4.24908       -0.35081
H          3.78669        1.86824        0.16512
H         -0.42082        7.60767        0.95059
H         -2.86968        4.22096        1.41662
H          1.15922        9.22358        0.30873
H          3.28386        9.16935        1.50128
H          4.06467        8.24389        0.21056
H          4.63068       10.45950       -0.46481
H          3.09839       11.11617        0.12234
H          3.64781        9.90574       -2.52501
H          2.28648       10.90183       -2.00524
H          2.54377        7.93906       -2.10119
H          1.06237        8.89636       -2.08060

--Link1--
%chk=JID_10123.chk
%mem=8GB
%nprocshared=4
# B3LYP/6-311++G(d,p) empiricaldispersion=gd3bj scf=xqc pop=npa geom=check

CID_4328824_JID_10123_Energie_neutraal

0 1

--Link1--
%chk=JID_10123.chk
%mem=8GB
%nprocshared=4
# B3LYP/6-311++G(d,p) empiricaldispersion=gd3bj scf=xqc pop=npa geom=check

CID_4328824_JID_10123_Energie_kation

1 2

--Link1--
%chk=JID_10123.chk
%mem=8GB
%nprocshared=4
# B3LYP/6-311++G(d,p) empiricaldispersion=gd3bj scf=xqc pop=npa geom=check

CID_4328824_JID_10123_Energie_anion

-1 2
