%chk=JID_9574.chk
%mem=8GB
%nprocshared=4
# opt freq B3LYP/6-31G(d) empiricaldispersion=gd3bj scf=xqc

CID_107744320_JID_9574_neutraal

0 1
C          1.08192        0.00883       -0.05667
C          0.74033        0.93316       -1.21209
C         -0.47117        0.50497       -2.02525
N         -0.99966        1.72001       -2.65638
C         -0.29413        2.88296       -2.10034
C          0.47839        2.40125       -0.88957
C         -0.06889        2.79704        0.48620
O          0.49936        3.69581        1.12001
N         -1.05536        2.12350        1.14098
C         -2.29501        1.63659        0.69048
C         -2.86765        0.56000        1.38529
C         -4.13092        0.07069        1.06765
C         -4.85039        0.68821        0.04155
C         -4.31561        1.78988       -0.63932
C         -3.04334        2.26710       -0.30044
N         -6.18308        0.18997       -0.31415
O         -6.55526       -0.87629        0.19499
O         -6.85849        0.86622       -1.10332
O         -2.18393       -0.07892        2.38429
H          0.23037       -0.16660        0.60366
H          1.90388        0.41804        0.53931
H          1.39826       -0.96869       -0.43684
H          1.60485        0.91167       -1.89401
H         -0.19582       -0.23793       -2.78197
H         -1.24605        0.05266       -1.39996
H         -0.86237        1.68144       -3.66707
H         -0.97110        3.71388       -1.89102
H          0.41395        3.24171       -2.85870
H          1.46201        2.89697       -0.91432
H         -1.08275        2.40010        2.12003
H         -4.53038       -0.77803        1.61700
H         -4.87523        2.29616       -1.42400
H         -2.68679        3.16257       -0.79489
H         -1.25795        0.21854        2.33693

--Link1--
%chk=JID_9574.chk
%mem=8GB
%nprocshared=4
# B3LYP/6-311++G(d,p) empiricaldispersion=gd3bj scf=xqc pop=npa geom=check

CID_107744320_JID_9574_Energie_neutraal

0 1

--Link1--
%chk=JID_9574.chk
%mem=8GB
%nprocshared=4
# B3LYP/6-311++G(d,p) empiricaldispersion=gd3bj scf=xqc pop=npa geom=check

CID_107744320_JID_9574_Energie_kation

1 2

--Link1--
%chk=JID_9574.chk
%mem=8GB
%nprocshared=4
# B3LYP/6-311++G(d,p) empiricaldispersion=gd3bj scf=xqc pop=npa geom=check

CID_107744320_JID_9574_Energie_anion

-1 2
