%chk=JID_3686.chk
%mem=8GB
%nprocshared=4
# opt freq B3LYP/6-31G(d) empiricaldispersion=gd3bj scf=xqc

CID_145423347_JID_3686_neutraal

0 1
C          1.03591       -0.06210       -0.06967
C          0.59223       -1.11793       -1.07874
C          1.18323       -2.54495       -0.88579
C          0.84941       -3.09012        0.55294
C         -0.61142       -3.03250        0.99355
C          0.58624       -3.55277       -1.92819
C          0.24853       -3.01535       -3.31562
C          2.75459       -2.55819       -0.96121
C          3.45497       -2.28431       -2.29555
N          3.31643       -0.93103       -2.78044
C          4.02944        0.14297       -2.36767
O          3.88328        1.27804       -2.78582
O          4.94144       -0.13629       -1.42661
H          0.75553       -0.32713        0.95285
H          0.55328        0.89326       -0.30234
H          2.11519        0.10395       -0.09914
H         -0.50337       -1.17248       -1.05048
H          0.83263       -0.73715       -2.07573
H          1.17851       -4.13604        0.62081
H          1.44188       -2.54497        1.29909
H         -1.27056       -3.59253        0.32637
H         -0.70927       -3.47265        1.99192
H         -0.97844       -2.00489        1.05787
H          1.27025       -4.40422       -2.03879
H         -0.34352       -3.98441       -1.54352
H          1.09486       -2.52804       -3.80043
H         -0.07011       -3.84053       -3.96175
H         -0.58115       -2.30289       -3.27269
H          3.15968       -1.87591       -0.20390
H          3.09023       -3.55803       -0.64911
H          4.52603       -2.48590       -2.17198
H          3.10692       -2.96295       -3.07789
H          2.62073       -0.72510       -3.48394
H          5.34809        0.73625       -1.25191

--Link1--
%chk=JID_3686.chk
%mem=8GB
%nprocshared=4
# B3LYP/6-311++G(d,p) empiricaldispersion=gd3bj scf=xqc pop=npa geom=check

CID_145423347_JID_3686_Energie_neutraal

0 1

--Link1--
%chk=JID_3686.chk
%mem=8GB
%nprocshared=4
# B3LYP/6-311++G(d,p) empiricaldispersion=gd3bj scf=xqc pop=npa geom=check

CID_145423347_JID_3686_Energie_kation

1 2

--Link1--
%chk=JID_3686.chk
%mem=8GB
%nprocshared=4
# B3LYP/6-311++G(d,p) empiricaldispersion=gd3bj scf=xqc pop=npa geom=check

CID_145423347_JID_3686_Energie_anion

-1 2
