%chk=JID_6348.chk
%mem=8GB
%nprocshared=4
# opt freq B3LYP/6-31G(d) empiricaldispersion=gd3bj scf=xqc

CID_81494793_JID_6348_neutraal

0 1
C          0.93765        0.07410        0.02492
C          0.46626       -1.07283       -0.85604
C          0.95176       -2.48213       -0.38319
C          0.14726       -3.56618       -1.23113
C          0.51811       -4.89930       -1.92812
C          1.64809       -5.65697       -1.23766
C          1.01909       -6.07122        0.09397
C         -0.42970       -5.57839       -0.03223
C         -0.67797       -5.78219       -1.53466
C         -0.56809       -4.04310        0.05495
C          0.12517       -2.93127        0.88230
N          0.94336       -3.53886        1.92871
C          1.37914       -2.55209        2.91869
C          0.30997       -2.25828        3.96280
C          2.48728       -2.56629       -0.32894
C          3.14309       -2.36485       -1.68800
H          0.62714       -0.06336        1.06398
H          0.50578        1.01594       -0.32947
H          2.02485        0.18642        0.00264
H         -0.63158       -1.04394       -0.87815
H          0.78965       -0.89125       -1.88764
H         -0.56389       -3.07713       -1.91856
H          0.66550       -4.78894       -3.00501
H          2.57407       -5.10028       -1.12529
H          1.90173       -6.55627       -1.81387
H          1.56941       -5.67643        0.94631
H          1.03934       -7.16449        0.18122
H         -1.12665       -6.10446        0.62407
H         -0.58107       -6.82428       -1.85745
H         -1.63867       -5.37902       -1.87325
H         -1.64981       -3.82740        0.01858
H         -0.60431       -2.19727        1.24504
H          0.47957       -4.30445        2.41788
H          2.25371       -2.96645        3.43321
H          1.71561       -1.62332        2.44819
H         -0.00305       -3.17351        4.47652
H          0.70389       -1.57006        4.71773
H         -0.57569       -1.79437        3.51834
H          2.88905       -1.81698        0.36186
H          2.81549       -3.52069        0.08784
H          2.72722       -3.03305       -2.44672
H          3.02049       -1.33726       -2.04280
H          4.21823       -2.55876       -1.61645

--Link1--
%chk=JID_6348.chk
%mem=8GB
%nprocshared=4
# B3LYP/6-311++G(d,p) empiricaldispersion=gd3bj scf=xqc pop=npa geom=check

CID_81494793_JID_6348_Energie_neutraal

0 1

--Link1--
%chk=JID_6348.chk
%mem=8GB
%nprocshared=4
# B3LYP/6-311++G(d,p) empiricaldispersion=gd3bj scf=xqc pop=npa geom=check

CID_81494793_JID_6348_Energie_kation

1 2

--Link1--
%chk=JID_6348.chk
%mem=8GB
%nprocshared=4
# B3LYP/6-311++G(d,p) empiricaldispersion=gd3bj scf=xqc pop=npa geom=check

CID_81494793_JID_6348_Energie_anion

-1 2
