%chk=JID_3695.chk
%mem=8GB
%nprocshared=4
# opt freq B3LYP/6-31G(d) empiricaldispersion=gd3bj scf=xqc

CID_147431126_JID_3695_neutraal

0 1
C          1.04567       -0.08723       -0.01750
C          0.51073       -1.50058       -0.35437
C          1.03581       -2.44887        0.74637
C         -1.02957       -1.42844       -0.27428
C          0.95067       -2.00449       -1.74878
C          1.66523       -1.27766       -2.63341
C          2.08304       -1.78376       -3.98951
C          2.02535       -3.31881       -4.15305
C          1.03652       -3.97185       -3.22620
C          0.54769       -3.35302       -2.14126
S          1.73698       -3.70531       -5.94591
C          2.01104       -5.47659       -5.81824
O          0.13668       -3.85689       -5.85013
H          0.72987        0.22606        0.98503
H          0.66920        0.66520       -0.72020
H          2.14139       -0.05719       -0.03367
H          0.77878       -2.07540        1.74470
H          0.60960       -3.45459        0.66509
H          2.12707       -2.54322        0.69870
H         -1.43627       -0.78386       -1.06235
H         -1.49705       -2.41365       -0.37488
H         -1.35543       -1.01923        0.68936
H          1.97131       -0.26007       -2.41304
H          3.11045       -1.45193       -4.18752
H          1.45234       -1.27666       -4.73137
H          3.01891       -3.72709       -3.92750
H          0.72119       -4.98955       -3.43811
H         -0.16032       -3.88721       -1.51368
H          1.29151       -6.18886       -6.24916
H          2.90866       -5.87402       -5.32199
H         -0.29382       -3.02912       -5.52179

--Link1--
%chk=JID_3695.chk
%mem=8GB
%nprocshared=4
# B3LYP/6-311++G(d,p) empiricaldispersion=gd3bj scf=xqc pop=npa geom=check

CID_147431126_JID_3695_Energie_neutraal

0 1

--Link1--
%chk=JID_3695.chk
%mem=8GB
%nprocshared=4
# B3LYP/6-311++G(d,p) empiricaldispersion=gd3bj scf=xqc pop=npa geom=check

CID_147431126_JID_3695_Energie_kation

1 2

--Link1--
%chk=JID_3695.chk
%mem=8GB
%nprocshared=4
# B3LYP/6-311++G(d,p) empiricaldispersion=gd3bj scf=xqc pop=npa geom=check

CID_147431126_JID_3695_Energie_anion

-1 2
