%chk=JID_3178.chk
%mem=8GB
%nprocshared=4
# opt freq B3LYP/6-31G(d) empiricaldispersion=gd3bj scf=xqc

CID_88498149_JID_3178_neutraal

0 1
C          1.08938        0.00939       -0.04384
C          1.76180        0.80764       -1.14570
O          2.55306       -0.08475       -1.91678
C          3.77461        0.38300       -2.51394
S          4.13190       -0.78456       -3.94524
C          2.61133       -0.58871       -4.90138
C          2.49062        0.81191       -5.47498
C          2.27431        1.87989       -4.41676
S          3.66117        2.08223       -3.26185
C          4.99047        0.27067       -1.46824
C          4.84186        1.22413       -0.25504
C          5.07395       -1.15854       -0.86630
C          6.37291        0.59399       -2.09851
H          0.49001       -0.80379       -0.46660
H          0.43974        0.64919        0.55998
H          1.83642       -0.45205        0.61006
H          0.98419        1.23458       -1.78454
H          2.33104        1.63153       -0.71323
H          1.74060       -0.85082       -4.29183
H          2.64967       -1.30950       -5.72504
H          3.36280        1.05579       -6.09553
H          1.62753        0.82841       -6.15277
H          2.13774        2.84535       -4.91636
H          1.35026        1.68976       -3.86594
H          4.01792        0.92718        0.39957
H          5.74267        1.20434        0.37143
H          4.69446        2.26438       -0.55899
H          5.32492       -1.91265       -1.61828
H          5.85212       -1.21419       -0.09529
H          4.13031       -1.45192       -0.39436
H          6.63760       -0.09285       -2.90752
H          6.41651        1.61523       -2.48940
H          7.17124        0.50728       -1.35086

--Link1--
%chk=JID_3178.chk
%mem=8GB
%nprocshared=4
# B3LYP/6-311++G(d,p) empiricaldispersion=gd3bj scf=xqc pop=npa geom=check

CID_88498149_JID_3178_Energie_neutraal

0 1

--Link1--
%chk=JID_3178.chk
%mem=8GB
%nprocshared=4
# B3LYP/6-311++G(d,p) empiricaldispersion=gd3bj scf=xqc pop=npa geom=check

CID_88498149_JID_3178_Energie_kation

1 2

--Link1--
%chk=JID_3178.chk
%mem=8GB
%nprocshared=4
# B3LYP/6-311++G(d,p) empiricaldispersion=gd3bj scf=xqc pop=npa geom=check

CID_88498149_JID_3178_Energie_anion

-1 2
