%chk=JID_9783.chk
%mem=8GB
%nprocshared=4
# opt freq B3LYP/6-31G(d) empiricaldispersion=gd3bj scf=xqc

CID_114460176_JID_9783_neutraal

0 1
C          1.07092       -0.03672       -0.06019
C          0.53643       -1.47397       -0.26708
C          0.91458       -2.28347        0.99069
C         -0.99979       -1.37723       -0.36051
C          1.10724       -2.16478       -1.52346
C          1.96030       -1.58285       -2.39418
C          2.60675       -2.24699       -3.58423
N          2.41966       -3.70132       -3.52853
C          1.05310       -4.10653       -3.19298
C          0.71390       -3.61294       -1.77606
C          3.06723       -4.38220       -4.56735
N          3.78721       -3.70367       -5.49096
N          4.50524       -4.34773       -6.48559
C          4.50458       -5.69186       -6.54067
C          3.78766       -6.44145       -5.62646
C          3.07069       -5.77376       -4.62936
C          5.33284       -6.30222       -7.61445
O          6.01446       -5.72124       -8.43903
O          5.27881       -7.65243       -7.61025
H          0.65830        0.41028        0.85244
H          0.79253        0.62072       -0.89203
H          2.16233       -0.02286        0.04167
H          0.57048       -1.78191        1.90288
H          0.46321       -3.28178        0.98646
H          2.00113       -2.40683        1.07010
H         -1.30976       -0.86459       -1.27837
H         -1.47795       -2.36215       -0.34766
H         -1.41157       -0.81704        0.48753
H          2.27119       -0.55086       -2.26428
H          3.67633       -2.00320       -3.55478
H          2.17317       -1.82208       -4.49873
H          0.34795       -3.68210       -3.92045
H          0.90954       -5.19166       -3.20595
H         -0.35923       -3.76010       -1.62181
H          1.23946       -4.24508       -1.04945
H          3.79363       -7.52537       -5.65811
H          2.55644       -6.36533       -3.88015
H          5.87097       -7.90215       -8.35244

--Link1--
%chk=JID_9783.chk
%mem=8GB
%nprocshared=4
# B3LYP/6-311++G(d,p) empiricaldispersion=gd3bj scf=xqc pop=npa geom=check

CID_114460176_JID_9783_Energie_neutraal

0 1

--Link1--
%chk=JID_9783.chk
%mem=8GB
%nprocshared=4
# B3LYP/6-311++G(d,p) empiricaldispersion=gd3bj scf=xqc pop=npa geom=check

CID_114460176_JID_9783_Energie_kation

1 2

--Link1--
%chk=JID_9783.chk
%mem=8GB
%nprocshared=4
# B3LYP/6-311++G(d,p) empiricaldispersion=gd3bj scf=xqc pop=npa geom=check

CID_114460176_JID_9783_Energie_anion

-1 2
