%chk=JID_8196.chk
%mem=8GB
%nprocshared=4
# opt freq B3LYP/6-31G(d) empiricaldispersion=gd3bj scf=xqc

CID_90128305_JID_8196_neutraal

0 1
C          0.94945       -0.06530       -0.05639
C          0.42825       -1.49931       -0.07417
C          0.67199       -2.29918        1.22939
C         -0.01206       -1.61313        2.42562
C          0.07619       -3.70982        1.08654
C          2.17202       -2.43712        1.50971
O          2.71976       -2.09457        2.55072
O          2.82871       -2.99241        0.45046
C          4.25211       -3.06821        0.62412
C          4.90880       -3.63365       -0.63733
C          4.40367       -5.01094       -1.05492
C          3.83362       -4.81800       -2.43641
C          4.39049       -3.51013       -2.91019
O          4.69045       -2.73838       -1.74204
C          3.26418       -2.88441       -3.69630
O          2.05947       -3.43623       -3.15712
C          2.35439       -4.55969       -2.44474
O          1.51286       -5.28709       -1.94015
H          0.42545        0.54451        0.68494
H          0.78874        0.39923       -1.03496
H          2.02195       -0.02966        0.15647
H         -0.64796       -1.47017       -0.28847
H          0.89218       -2.01727       -0.92256
H         -1.07713       -1.44591        2.23042
H          0.06817       -2.22681        3.33091
H          0.44604       -0.64617        2.65949
H          0.49786       -4.23899        0.22717
H          0.28455       -4.31948        1.97343
H         -1.01035       -3.67014        0.95082
H          4.63693       -2.05758        0.80629
H          4.47974       -3.71341        1.48051
H          5.99179       -3.67684       -0.46998
H          5.25684       -5.69900       -1.10159
H          3.69520       -5.44265       -0.34036
H          4.03626       -5.64445       -3.12440
H          5.31227       -3.60309       -3.49259
H          3.23065       -1.79598       -3.59414
H          3.30676       -3.15364       -4.75649

--Link1--
%chk=JID_8196.chk
%mem=8GB
%nprocshared=4
# B3LYP/6-311++G(d,p) empiricaldispersion=gd3bj scf=xqc pop=npa geom=check

CID_90128305_JID_8196_Energie_neutraal

0 1

--Link1--
%chk=JID_8196.chk
%mem=8GB
%nprocshared=4
# B3LYP/6-311++G(d,p) empiricaldispersion=gd3bj scf=xqc pop=npa geom=check

CID_90128305_JID_8196_Energie_kation

1 2

--Link1--
%chk=JID_8196.chk
%mem=8GB
%nprocshared=4
# B3LYP/6-311++G(d,p) empiricaldispersion=gd3bj scf=xqc pop=npa geom=check

CID_90128305_JID_8196_Energie_anion

-1 2
