%chk=JID_8161.chk
%mem=8GB
%nprocshared=4
# opt freq B3LYP/6-31G(d) empiricaldispersion=gd3bj scf=xqc

CID_63855904_JID_8161_neutraal

0 1
C          0.95596       -0.07419       -0.05056
O          1.98050       -0.91441       -0.57311
C          2.17849       -0.75450       -1.97463
C          2.99177        0.49537       -2.28977
C          4.16585        0.74726       -1.34910
S          5.45745       -0.48897       -1.40042
O          5.42257       -1.13015       -2.70179
O          6.68238        0.14336       -0.94435
C          5.04802       -1.72576       -0.18882
C          5.10049       -1.19122        1.23126
N          3.91046       -1.50182        1.99734
C          3.30126       -2.70731        2.16391
C          2.20140       -2.42442        2.95122
N          2.22692       -1.08743        3.27289
N          3.28270       -0.53594        2.68707
C          1.15595       -3.32806        3.38372
O          0.19083       -3.04125        4.07825
O          1.29771       -4.60171        2.93774
H          0.00745       -0.26786       -0.56064
H          1.22773        0.98012       -0.14902
H          0.82540       -0.30035        1.00940
H          2.71644       -1.64120       -2.32485
H          1.21820       -0.74553       -2.50365
H          3.33205        0.44838       -3.33083
H          2.32868        1.36691       -2.22640
H          4.64998        1.68365       -1.65179
H          3.84960        0.87971       -0.31204
H          4.09499       -2.17355       -0.47010
H          5.80893       -2.50678       -0.30716
H          5.93466       -1.64654        1.77782
H          5.24141       -0.10608        1.27547
H          3.64786       -3.62180        1.70585
H          0.50905       -5.04746        3.31044

--Link1--
%chk=JID_8161.chk
%mem=8GB
%nprocshared=4
# B3LYP/6-311++G(d,p) empiricaldispersion=gd3bj scf=xqc pop=npa geom=check

CID_63855904_JID_8161_Energie_neutraal

0 1

--Link1--
%chk=JID_8161.chk
%mem=8GB
%nprocshared=4
# B3LYP/6-311++G(d,p) empiricaldispersion=gd3bj scf=xqc pop=npa geom=check

CID_63855904_JID_8161_Energie_kation

1 2

--Link1--
%chk=JID_8161.chk
%mem=8GB
%nprocshared=4
# B3LYP/6-311++G(d,p) empiricaldispersion=gd3bj scf=xqc pop=npa geom=check

CID_63855904_JID_8161_Energie_anion

-1 2
