%chk=JID_3444.chk
%mem=8GB
%nprocshared=4
# opt freq B3LYP/6-31G(d) empiricaldispersion=gd3bj scf=xqc

CID_130559435_JID_3444_neutraal

0 1
C          1.05854        0.06411       -0.04963
C          0.35411       -1.04303       -0.79991
C          1.09396       -2.39713       -0.94220
N         -0.00130       -3.07535       -0.24105
C         -0.76578       -1.83358       -0.07677
C         -0.68038       -4.10313       -1.04631
C         -1.33111       -3.80488       -2.41219
N         -0.43802       -3.80992       -3.54625
C         -0.33009       -2.86704       -4.52194
N          0.54989       -3.25431       -5.41616
C          0.93070       -4.48169       -4.95397
N          0.33384       -4.87837       -3.82691
N         -0.13842       -0.60642       -2.12111
H          1.41302       -0.28191        0.92753
H          0.38876        0.91307        0.12600
H          1.92921        0.42880       -0.60563
H          1.32997       -2.72959       -1.95633
H          2.03558       -2.44487       -0.37986
H         -0.88764       -1.55733        0.97848
H         -1.76658       -1.79854       -0.52067
H          0.01219       -4.94820       -1.14995
H         -1.48672       -4.48329       -0.40406
H         -2.06638       -4.59258       -2.62332
H         -1.88772       -2.86395       -2.41214
H         -0.89582       -1.94626       -4.52849
H          1.65807       -5.10582       -5.45682
H          0.62096       -0.37908       -2.76702
H         -0.70807        0.23930       -2.07381

--Link1--
%chk=JID_3444.chk
%mem=8GB
%nprocshared=4
# B3LYP/6-311++G(d,p) empiricaldispersion=gd3bj scf=xqc pop=npa geom=check

CID_130559435_JID_3444_Energie_neutraal

0 1

--Link1--
%chk=JID_3444.chk
%mem=8GB
%nprocshared=4
# B3LYP/6-311++G(d,p) empiricaldispersion=gd3bj scf=xqc pop=npa geom=check

CID_130559435_JID_3444_Energie_kation

1 2

--Link1--
%chk=JID_3444.chk
%mem=8GB
%nprocshared=4
# B3LYP/6-311++G(d,p) empiricaldispersion=gd3bj scf=xqc pop=npa geom=check

CID_130559435_JID_3444_Energie_anion

-1 2
