%chk=JID_6108.chk
%mem=8GB
%nprocshared=4
# opt freq B3LYP/6-31G(d) empiricaldispersion=gd3bj scf=xqc

CID_65315154_JID_6108_neutraal

0 1
C          2.49200        0.00400       -0.01400
C          0.99549       -0.07230       -0.04817
C          0.35228       -1.30785        0.07003
C         -1.04798       -1.40664       -0.00870
C         -1.81366       -0.24923       -0.24233
C         -1.16786        0.98491       -0.36689
C          0.22537        1.07053       -0.27228
O         -3.16829       -0.43729       -0.36461
C         -3.97789        0.73197       -0.43326
C         -1.69096       -2.77051        0.09363
N         -1.71751       -3.40985       -1.22091
C         -2.60394       -4.59794       -1.26296
C         -4.10302       -4.26274       -1.13730
O         -4.45210       -3.14189       -1.94907
C         -2.33048       -5.30835       -2.60539
O         -0.93066       -5.57603       -2.72264
H          2.90460       -0.74020        0.67536
H          2.89912       -0.17399       -1.01409
H          2.82639        0.98743        0.33283
H          0.94316       -2.21156        0.21018
H         -1.71476        1.90191       -0.55756
H          0.70581        2.03998       -0.38918
H         -3.82818        1.37169        0.44309
H         -3.79540        1.28117       -1.36254
H         -5.02444        0.41250       -0.43619
H         -1.11974       -3.39163        0.79466
H         -2.68887       -2.66510        0.53192
H         -2.05902       -2.73431       -1.90926
H         -2.31010       -5.28778       -0.46166
H         -4.71772       -5.11257       -1.45159
H         -4.37359       -4.02894       -0.10251
H         -4.09570       -2.34996       -1.50237
H         -2.86248       -6.26304       -2.66102
H         -2.63002       -4.69300       -3.46069
H         -0.50395       -4.77449       -2.35351

--Link1--
%chk=JID_6108.chk
%mem=8GB
%nprocshared=4
# B3LYP/6-311++G(d,p) empiricaldispersion=gd3bj scf=xqc pop=npa geom=check

CID_65315154_JID_6108_Energie_neutraal

0 1

--Link1--
%chk=JID_6108.chk
%mem=8GB
%nprocshared=4
# B3LYP/6-311++G(d,p) empiricaldispersion=gd3bj scf=xqc pop=npa geom=check

CID_65315154_JID_6108_Energie_kation

1 2

--Link1--
%chk=JID_6108.chk
%mem=8GB
%nprocshared=4
# B3LYP/6-311++G(d,p) empiricaldispersion=gd3bj scf=xqc pop=npa geom=check

CID_65315154_JID_6108_Energie_anion

-1 2
