%chk=JID_284.chk
%mem=8GB
%nprocshared=4
# opt freq B3LYP/6-31G(d) empiricaldispersion=gd3bj scf=xqc

CID_144702939_JID_284_neutraal

0 1
C          0.98474       -0.05388       -0.08285
C          0.72813        0.29459       -1.54226
C          1.13802       -0.80687       -2.49553
C          0.21774       -1.48753       -3.20220
C          2.61903       -1.12274       -2.62490
C          3.42830        0.00040       -3.26006
C          4.21875        0.79360       -2.51189
C          5.12475        1.86812       -3.02104
N          3.42011        0.07435       -4.63324
C          2.47401        0.80172       -5.12563
H          0.48625       -0.98845        0.19514
H          0.59975        0.74011        0.56539
H          2.05399       -0.15994        0.12470
H         -0.34072        0.51526       -1.65807
H          1.25220        1.22253       -1.79716
H          0.50375       -2.27828       -3.89022
H         -0.84327       -1.27483       -3.11432
H          3.01893       -1.37410       -1.63470
H          2.76605       -2.03174       -3.22429
H          4.22765        0.65771       -1.43310
H          4.83090        2.83160       -2.59313
H          6.15419        1.65806       -2.71447
H          5.11145        1.96376       -4.11020
H          1.72707        1.34151       -4.51709
H          2.38983        0.91181       -6.21828

--Link1--
%chk=JID_284.chk
%mem=8GB
%nprocshared=4
# B3LYP/6-311++G(d,p) empiricaldispersion=gd3bj scf=xqc pop=npa geom=check

CID_144702939_JID_284_Energie_neutraal

0 1

--Link1--
%chk=JID_284.chk
%mem=8GB
%nprocshared=4
# B3LYP/6-311++G(d,p) empiricaldispersion=gd3bj scf=xqc pop=npa geom=check

CID_144702939_JID_284_Energie_kation

1 2

--Link1--
%chk=JID_284.chk
%mem=8GB
%nprocshared=4
# B3LYP/6-311++G(d,p) empiricaldispersion=gd3bj scf=xqc pop=npa geom=check

CID_144702939_JID_284_Energie_anion

-1 2
