%chk=JID_5625.chk
%mem=8GB
%nprocshared=4
# opt freq B3LYP/6-31G(d) empiricaldispersion=gd3bj scf=xqc

CID_18006645_JID_5625_neutraal

0 1
C          0.94496        0.03682       -0.07493
C          0.31147       -0.80483        1.01987
N         -0.05308        0.00103        2.18615
C         -1.04100        0.93326        2.15336
O         -0.80354        2.06799        2.56126
N         -2.25242        0.62751        1.64194
C         -2.97518       -0.57817        1.51512
C         -2.71886       -1.78211        2.18161
C         -3.52552       -2.90880        1.97250
C         -4.63828       -2.86283        1.12858
C         -4.88800       -1.65922        0.46041
C         -4.08747       -0.52894        0.66733
N         -5.42555       -3.97393        0.81418
C         -5.39280       -5.14324        1.67439
O         -1.72063       -1.95645        3.10042
H          0.24316        0.78665       -0.45441
H          1.25230       -0.59698       -0.91238
H          1.82855        0.56476        0.29870
H         -0.56021       -1.31746        0.61160
H          1.02122       -1.56125        1.36956
H          0.75674        0.40998        2.64182
H         -2.77255        1.46887        1.42216
H         -3.26182       -3.82075        2.49903
H         -5.71592       -1.58982       -0.24146
H         -4.33246        0.38075        0.12415
H         -6.36883       -3.70924        0.54150
H         -5.65766       -4.88730        2.70556
H         -6.12286       -5.87445        1.31274
H         -4.41155       -5.62803        1.65302
H         -1.16079       -1.15864        3.08251

--Link1--
%chk=JID_5625.chk
%mem=8GB
%nprocshared=4
# B3LYP/6-311++G(d,p) empiricaldispersion=gd3bj scf=xqc pop=npa geom=check

CID_18006645_JID_5625_Energie_neutraal

0 1

--Link1--
%chk=JID_5625.chk
%mem=8GB
%nprocshared=4
# B3LYP/6-311++G(d,p) empiricaldispersion=gd3bj scf=xqc pop=npa geom=check

CID_18006645_JID_5625_Energie_kation

1 2

--Link1--
%chk=JID_5625.chk
%mem=8GB
%nprocshared=4
# B3LYP/6-311++G(d,p) empiricaldispersion=gd3bj scf=xqc pop=npa geom=check

CID_18006645_JID_5625_Energie_anion

-1 2
