%chk=JID_8773.chk
%mem=8GB
%nprocshared=4
# opt freq B3LYP/6-31G(d) empiricaldispersion=gd3bj scf=xqc

CID_79724434_JID_8773_neutraal

0 1
C          2.49200        0.00400       -0.01400
C          1.04355       -0.27019        0.28421
C          0.54867       -1.57544        0.38673
C         -0.80408       -1.75421        0.68218
C         -1.65060       -0.65531        0.88382
C         -1.19284        0.66818        0.79638
C          0.17606        0.82158        0.51107
N         -2.04224        1.75882        1.02520
C         -3.47525        1.57681        0.79626
C         -1.53889        3.11401        0.81335
N          1.40207       -2.68961        0.21240
C          1.67090       -3.44165        1.45611
C          2.24699       -4.81398        1.06508
C          2.65795       -5.63134        2.28899
C          3.63105       -4.88387        3.20839
C          3.07236       -3.50412        3.57487
C          2.65407       -2.67885        2.35656
N          4.95171       -4.75509        2.59196
H          3.07566       -0.00799        0.91110
H          2.90427       -0.73263       -0.71085
H          2.61483        0.98442       -0.48713
H         -1.22021       -2.75391        0.76782
H         -2.68447       -0.87224        1.13222
H          0.61070        1.81472        0.44596
H         -3.90815        0.88133        1.52281
H         -4.02121        2.51902        0.91997
H         -3.67022        1.21622       -0.21998
H         -0.66284        3.31554        1.43946
H         -1.28726        3.28136       -0.23967
H         -2.28837        3.86068        1.09948
H          0.93577       -3.30712       -0.45377
H          0.73864       -3.61927        2.00893
H          1.49931       -5.37837        0.49344
H          3.10661       -4.68584        0.39481
H          3.09358       -6.58427        1.96410
H          1.75648       -5.88575        2.86168
H          3.75828       -5.46375        4.12993
H          3.80602       -2.93993        4.16411
H          2.19715       -3.63968        4.22380
H          3.54213       -2.38693        1.78234
H          2.19791       -1.74656        2.71012
H          5.29320       -5.67255        2.30808
H          4.90260       -4.19642        1.74092

--Link1--
%chk=JID_8773.chk
%mem=8GB
%nprocshared=4
# B3LYP/6-311++G(d,p) empiricaldispersion=gd3bj scf=xqc pop=npa geom=check

CID_79724434_JID_8773_Energie_neutraal

0 1

--Link1--
%chk=JID_8773.chk
%mem=8GB
%nprocshared=4
# B3LYP/6-311++G(d,p) empiricaldispersion=gd3bj scf=xqc pop=npa geom=check

CID_79724434_JID_8773_Energie_kation

1 2

--Link1--
%chk=JID_8773.chk
%mem=8GB
%nprocshared=4
# B3LYP/6-311++G(d,p) empiricaldispersion=gd3bj scf=xqc pop=npa geom=check

CID_79724434_JID_8773_Energie_anion

-1 2
