%chk=JID_3239.chk
%mem=8GB
%nprocshared=4
# opt freq B3LYP/6-31G(d) empiricaldispersion=gd3bj scf=xqc

CID_104285300_JID_3239_neutraal

0 1
O       -0.0376 -0.3279 -0.3266
N       1.9292  -2.3800 0.2438
N       -5.8867 -0.1971 -0.4651
C       1.2464  -0.0157 0.2113
C       2.2663  -1.0537 -0.2817
C       1.6291  1.3976  -0.2350
C       3.6934  -0.6757 0.1339
C       3.0488  1.7627  0.1805
C       4.0573  0.7351  -0.3225
C       -1.0769 0.2552  0.4445
C       -2.4160 -0.0951 -0.1888
C       -3.5834 0.4892  0.6010
C       -4.8698 0.1055  0.0047
H       1.2125  -0.0527 1.3100
H       2.2132  -1.1137 -1.3766
H       0.9449  2.1439  0.1812
H       1.5275  1.4790  -1.3253
H       4.4114  -1.3883 -0.2905
H       3.7957  -0.7353 1.2257
H       3.1055  1.8274  1.2740
H       3.3056  2.7530  -0.2123
H       4.0967  0.7660  -1.4183
H       5.0584  0.9930  0.0409
H       2.5699  -3.0733 -0.1402
H       0.9958  -2.6433 -0.0695
H       -1.0393 -0.1383 1.4673
H       -0.9771 1.3439  0.4827
H       -2.4356 0.2661  -1.2255
H       -2.5087 -1.1871 -0.2587
H       -3.5452 0.1366  1.6382
H       -3.5041 1.5820  0.6293

--Link1--
%chk=JID_3239.chk
%mem=8GB
%nprocshared=4
# B3LYP/6-311++G(d,p) empiricaldispersion=gd3bj scf=xqc pop=npa geom=check

CID_104285300_JID_3239_Energie_neutraal

0 1

--Link1--
%chk=JID_3239.chk
%mem=8GB
%nprocshared=4
# B3LYP/6-311++G(d,p) empiricaldispersion=gd3bj scf=xqc pop=npa geom=check

CID_104285300_JID_3239_Energie_kation

1 2

--Link1--
%chk=JID_3239.chk
%mem=8GB
%nprocshared=4
# B3LYP/6-311++G(d,p) empiricaldispersion=gd3bj scf=xqc pop=npa geom=check

CID_104285300_JID_3239_Energie_anion

-1 2
