%chk=JID_6431.chk
%mem=8GB
%nprocshared=4
# opt freq B3LYP/6-31G(d) empiricaldispersion=gd3bj scf=xqc

CID_107450415_JID_6431_neutraal

0 1
C          1.02119        0.02481       -0.09453
C         -0.06324        0.03501       -1.16442
C          0.37731       -0.84321       -2.34333
C         -1.50653       -0.30516       -0.68628
C         -2.10753        0.76161        0.24694
C         -2.10308        0.41350        1.72702
C         -2.68722       -0.96956        1.97050
C         -1.88441       -2.08432        1.27981
C         -1.79100       -1.75603       -0.23833
C         -0.47871       -2.32674        1.87717
C         -0.41444       -3.14101        3.18443
C         -1.34472       -4.35158        3.07814
C         -2.72364       -3.95089        2.59189
O         -2.63585       -3.31724        1.32022
N         -0.70959       -2.40703        4.42195
C          0.28046       -1.39388        4.75187
H          1.27395       -0.99224        0.21288
H          0.73566        0.61028        0.78205
H          1.94191        0.47045       -0.48919
H         -0.10342        1.06274       -1.55357
H          0.56492       -1.87680       -2.03727
H         -0.38006       -0.84986       -3.13398
H          1.30558       -0.45797       -2.77999
H         -2.08903       -0.19541       -1.61642
H         -1.62320        1.73348        0.09551
H         -3.15588        0.90846       -0.04931
H         -1.09266        0.48738        2.13753
H         -2.70373        1.15587        2.26649
H         -3.72373       -0.99536        1.60581
H         -2.77409       -1.13388        3.04558
H         -2.77302       -2.01117       -0.66903
H         -1.11510       -2.46489       -0.72942
H          0.09533       -2.91283        1.14485
H          0.06783       -1.39116        1.99570
H          0.60594       -3.53520        3.28546
H         -1.41497       -4.88423        4.03396
H         -0.90852       -5.05432        2.35581
H         -3.24910       -3.30990        3.30628
H         -3.33733       -4.84874        2.46353
H         -1.63784       -1.99594        4.40901
H          0.26448       -0.55725        4.04827
H          0.06306       -0.98951        5.74556
H          1.28988       -1.81594        4.78674

--Link1--
%chk=JID_6431.chk
%mem=8GB
%nprocshared=4
# B3LYP/6-311++G(d,p) empiricaldispersion=gd3bj scf=xqc pop=npa geom=check

CID_107450415_JID_6431_Energie_neutraal

0 1

--Link1--
%chk=JID_6431.chk
%mem=8GB
%nprocshared=4
# B3LYP/6-311++G(d,p) empiricaldispersion=gd3bj scf=xqc pop=npa geom=check

CID_107450415_JID_6431_Energie_kation

1 2

--Link1--
%chk=JID_6431.chk
%mem=8GB
%nprocshared=4
# B3LYP/6-311++G(d,p) empiricaldispersion=gd3bj scf=xqc pop=npa geom=check

CID_107450415_JID_6431_Energie_anion

-1 2
