%chk=JID_3309.chk
%mem=8GB
%nprocshared=4
# opt freq B3LYP/6-31G(d) empiricaldispersion=gd3bj scf=xqc

CID_116040076_JID_3309_neutraal

0 1
C          0.98791       -0.09902        0.00700
C          0.56858       -0.44022        1.43528
C          0.98484        0.67019        2.39542
N         -0.87610       -0.63095        1.50147
C         -1.56701       -1.80134        1.34939
O         -2.77233       -1.75279        1.09414
C         -0.83793       -3.13806        1.50989
N         -0.18075       -3.49725        0.24509
C          0.55035       -4.77361        0.32422
C         -0.40830       -5.97027        0.32731
C          1.51809       -4.90278       -0.87934
C          2.61606       -3.87129       -0.87598
C          3.92288       -4.15779       -0.82049
H          0.52854        0.83820       -0.32699
H          0.67823       -0.87993       -0.69447
H          2.07503        0.01004       -0.06451
H          1.07487       -1.36154        1.73476
H          0.50354        1.62083        2.13984
H          0.69634        0.42097        3.42250
H          2.06934        0.81955        2.37472
H         -1.45938        0.17771        1.32243
H         -0.12250       -3.06680        2.33533
H         -1.59199       -3.87954        1.79520
H         -0.89059       -3.54600       -0.48839
H          1.15027       -4.79803        1.24347
H         -1.04860       -5.97281       -0.56187
H          0.15134       -6.91215        0.33825
H         -1.05339       -5.97096        1.21117
H          1.95909       -5.90813       -0.87982
H          0.96028       -4.81091       -1.82049
H          2.30395       -2.83095       -0.93335
H          4.66425       -3.36469       -0.82814
H          4.28313       -5.18029       -0.76894

--Link1--
%chk=JID_3309.chk
%mem=8GB
%nprocshared=4
# B3LYP/6-311++G(d,p) empiricaldispersion=gd3bj scf=xqc pop=npa geom=check

CID_116040076_JID_3309_Energie_neutraal

0 1

--Link1--
%chk=JID_3309.chk
%mem=8GB
%nprocshared=4
# B3LYP/6-311++G(d,p) empiricaldispersion=gd3bj scf=xqc pop=npa geom=check

CID_116040076_JID_3309_Energie_kation

1 2

--Link1--
%chk=JID_3309.chk
%mem=8GB
%nprocshared=4
# B3LYP/6-311++G(d,p) empiricaldispersion=gd3bj scf=xqc pop=npa geom=check

CID_116040076_JID_3309_Energie_anion

-1 2
