%chk=JID_10010.chk
%mem=8GB
%nprocshared=4
# opt freq B3LYP/6-31G(d) empiricaldispersion=gd3bj scf=xqc

CID_65167845_JID_10010_neutraal

0 1
C          0.99175       -0.08587       -0.05058
C          0.70263        1.17499        0.75388
C          1.91174        2.13507        0.82816
C          1.65365        3.55744        1.44730
C          1.37904        4.07592        0.02363
C          2.21213        2.89295       -0.52540
O          3.61791        3.04203       -0.85025
C          4.25048        4.31355       -0.80307
C          4.01433        5.08090       -2.08853
N          0.50704        3.62840        2.30615
C          0.05904        4.78846        2.98432
C          0.56677        6.06487        2.70967
C          0.03645        7.14311        3.38985
C         -0.98599        6.99964        4.29603
C         -1.54144        5.77068        4.56604
C         -1.01682        4.66075        3.89381
O         -1.35860        8.18246        4.85236
C         -0.44336        9.08782        4.20133
O          0.43592        8.43754        3.26024
C          3.12350        1.47545        1.49770
H          0.08115       -0.68661       -0.14352
H          1.74691       -0.70935        0.43694
H          1.34606        0.14988       -1.05814
H          0.40105        0.87512        1.76471
H         -0.16008        1.68181        0.30494
H          2.53980        4.00305        1.91671
H          1.73461        5.08695       -0.18553
H          0.32691        4.03591       -0.28853
H          1.72039        2.44519       -1.39742
H          3.93700        4.88126        0.07721
H          5.32415        4.12978       -0.69025
H          2.94879        5.26627       -2.25212
H          4.53720        6.04147       -2.06491
H          4.37251        4.50715       -2.94951
H          0.41287        2.81457        2.91090
H          1.36630        6.22519        1.99799
H         -2.35964        5.66774        5.26926
H         -1.45575        3.68310        4.07935
H         -1.02335        9.85098        3.66993
H          0.16652        9.58046        4.96764
H          3.94475        2.18558        1.64587
H          2.85498        1.07634        2.48154
H          3.51865        0.65611        0.88920

--Link1--
%chk=JID_10010.chk
%mem=8GB
%nprocshared=4
# B3LYP/6-311++G(d,p) empiricaldispersion=gd3bj scf=xqc pop=npa geom=check

CID_65167845_JID_10010_Energie_neutraal

0 1

--Link1--
%chk=JID_10010.chk
%mem=8GB
%nprocshared=4
# B3LYP/6-311++G(d,p) empiricaldispersion=gd3bj scf=xqc pop=npa geom=check

CID_65167845_JID_10010_Energie_kation

1 2

--Link1--
%chk=JID_10010.chk
%mem=8GB
%nprocshared=4
# B3LYP/6-311++G(d,p) empiricaldispersion=gd3bj scf=xqc pop=npa geom=check

CID_65167845_JID_10010_Energie_anion

-1 2
