%chk=JID_9539.chk
%mem=8GB
%nprocshared=4
# opt freq B3LYP/6-31G(d) empiricaldispersion=gd3bj scf=xqc

CID_63273582_JID_9539_neutraal

0 1
C          1.00084        0.04985        0.08669
C          0.02391       -1.12215        0.01885
C          0.52546       -2.42373       -0.71969
C         -0.54946       -3.51358       -0.43484
C         -0.43911       -4.13039        0.95921
N          0.92536       -4.56143        1.25370
C          1.84731       -3.42747        1.22710
C          1.91594       -2.82657       -0.17342
C          0.55802       -2.14842       -2.25553
O          0.25426       -1.01874       -2.66272
N          0.87065       -3.14130       -3.18714
C          1.48744       -4.43664       -2.91265
C          0.82506       -2.77308       -4.61001
C         -0.50164       -3.04738       -5.32967
C         -1.71568       -2.24249       -4.86912
C         -2.91890       -3.11171       -5.23983
N         -2.35137       -4.32087       -5.84869
C         -1.01655       -4.47757       -5.26439
C         -3.19153       -5.49247       -5.65518
H          1.81288       -0.14998        0.79224
H          0.47938        0.94335        0.44650
H          1.43780        0.28785       -0.88612
H         -0.26146       -1.35652        1.05089
H         -0.89690       -0.76729       -0.46399
H         -1.55402       -3.08490       -0.55435
H         -0.52066       -4.32248       -1.16899
H         -0.79094       -3.43171        1.72687
H         -1.10215       -5.00153        1.01193
H          0.94517       -4.98252        2.18332
H          2.84553       -3.78005        1.51026
H          1.55956       -2.67382        1.96925
H          2.42163       -3.54785       -0.81550
H          2.60130       -1.97204       -0.17327
H          1.14134       -5.17504       -3.64049
H          2.57100       -4.32460       -3.02002
H          1.27035       -4.82428       -1.92162
H          1.07264       -1.71057       -4.72164
H          1.62971       -3.31594       -5.12281
H         -0.33119       -2.79670       -6.38850
H         -1.75091       -1.26384       -5.35871
H         -1.72129       -2.08405       -3.78768
H         -3.57738       -2.59851       -5.94807
H         -3.49730       -3.33197       -4.33377
H         -1.07963       -4.84079       -4.23173
H         -0.39472       -5.16050       -5.85169
H         -2.74577       -6.36609       -6.14296
H         -3.33941       -5.73028       -4.59559
H         -4.17441       -5.33734       -6.11321

--Link1--
%chk=JID_9539.chk
%mem=8GB
%nprocshared=4
# B3LYP/6-311++G(d,p) empiricaldispersion=gd3bj scf=xqc pop=npa geom=check

CID_63273582_JID_9539_Energie_neutraal

0 1

--Link1--
%chk=JID_9539.chk
%mem=8GB
%nprocshared=4
# B3LYP/6-311++G(d,p) empiricaldispersion=gd3bj scf=xqc pop=npa geom=check

CID_63273582_JID_9539_Energie_kation

1 2

--Link1--
%chk=JID_9539.chk
%mem=8GB
%nprocshared=4
# B3LYP/6-311++G(d,p) empiricaldispersion=gd3bj scf=xqc pop=npa geom=check

CID_63273582_JID_9539_Energie_anion

-1 2
