%chk=JID_994.chk
%mem=8GB
%nprocshared=4
# opt freq B3LYP/6-31G(d) empiricaldispersion=gd3bj scf=xqc

CID_494057_JID_994_neutraal

0 1
C          0.95306        0.03686        0.08024
C          0.30870        0.18399        1.36883
C         -0.49042        1.70974        0.82571
C         -1.23778        1.31510       -0.55289
C         -0.47578        0.11513       -0.38573
C         -1.66402       -0.18268        1.10450
C         -0.73665       -1.21986        1.34290
C         -1.36895       -1.96258        0.06547
S         -2.65945       -0.36663       -0.90131
C         -3.11184       -0.20714        0.76172
H          1.42677       -0.93761       -0.06218
H          1.59923        0.84509       -0.26831
H          0.92569        0.29698        2.26175
H         -1.14582        2.16690        1.57783
H          0.30580        2.44077        0.62003
H         -1.02613        1.80635       -1.50314
H         -0.46099       -0.46636       -1.32645
H         -1.66714        0.41607        2.03628
H         -0.82519       -1.73135        2.30203
H         -0.71418       -2.32479       -0.73166
H         -2.16174       -2.67763        0.31257
H         -3.62793        0.73919        0.93612
H         -3.67189       -1.04880        1.17145

--Link1--
%chk=JID_994.chk
%mem=8GB
%nprocshared=4
# B3LYP/6-311++G(d,p) empiricaldispersion=gd3bj scf=xqc pop=npa geom=check

CID_494057_JID_994_Energie_neutraal

0 1

--Link1--
%chk=JID_994.chk
%mem=8GB
%nprocshared=4
# B3LYP/6-311++G(d,p) empiricaldispersion=gd3bj scf=xqc pop=npa geom=check

CID_494057_JID_994_Energie_kation

1 2

--Link1--
%chk=JID_994.chk
%mem=8GB
%nprocshared=4
# B3LYP/6-311++G(d,p) empiricaldispersion=gd3bj scf=xqc pop=npa geom=check

CID_494057_JID_994_Energie_anion

-1 2
