%chk=JID_5870.chk
%mem=8GB
%nprocshared=4
# opt freq B3LYP/6-31G(d) empiricaldispersion=gd3bj scf=xqc

CID_117295951_JID_5870_neutraal

0 1
C          0.95533       -0.08942        0.00283
O          0.78510       -0.04031       -1.40686
C          1.92603        0.47780       -2.09367
C          1.79754        1.98023       -2.37039
C          2.13683        2.88195       -1.20476
C          3.40379        2.84781       -0.61076
C          3.71333        3.70450        0.44957
C          2.76931        4.62326        0.92890
C          1.50865        4.67036        0.32659
C          1.19665        3.80556       -0.72942
C          3.17763        5.52678        2.04989
O          4.33846        5.48637        2.46213
C          2.19021        6.50094        2.65523
C          2.40129        7.91114        2.11797
N          1.87914        8.07183        0.76084
H          0.07065       -0.56479        0.43552
H          1.04248        0.91369        0.42493
H          1.83168       -0.68936        0.26645
H          2.85730        0.20983       -1.58195
H          1.94141       -0.03519       -3.06213
H          2.47143        2.25133       -3.19297
H          0.77723        2.19164       -2.71390
H          4.16732        2.16130       -0.96983
H          4.70597        3.65606        0.89484
H          0.74817        5.37998        0.63873
H          0.20851        3.86506       -1.18317
H          1.15485        6.16747        2.55014
H          2.37731        6.49806        3.73727
H          1.87367        8.61673        2.76908
H          3.46239        8.18427        2.13229
H          1.94736        9.05642        0.49794
H          2.48732        7.58192        0.10222

--Link1--
%chk=JID_5870.chk
%mem=8GB
%nprocshared=4
# B3LYP/6-311++G(d,p) empiricaldispersion=gd3bj scf=xqc pop=npa geom=check

CID_117295951_JID_5870_Energie_neutraal

0 1

--Link1--
%chk=JID_5870.chk
%mem=8GB
%nprocshared=4
# B3LYP/6-311++G(d,p) empiricaldispersion=gd3bj scf=xqc pop=npa geom=check

CID_117295951_JID_5870_Energie_kation

1 2

--Link1--
%chk=JID_5870.chk
%mem=8GB
%nprocshared=4
# B3LYP/6-311++G(d,p) empiricaldispersion=gd3bj scf=xqc pop=npa geom=check

CID_117295951_JID_5870_Energie_anion

-1 2
