%chk=JID_8371.chk
%mem=8GB
%nprocshared=4
# opt freq B3LYP/6-31G(d) empiricaldispersion=gd3bj scf=xqc

CID_61293551_JID_8371_neutraal

0 1
C          1.06464       -0.06821        0.03420
O          0.50218        1.18313        0.43463
C          0.88388        1.59074        1.67464
O          1.66938        0.99943        2.40330
C          0.23621        2.89984        2.02987
C          1.02961        4.06145        1.44853
N          0.65460        4.35890        0.06928
C         -0.48323        5.02818       -0.27869
O         -1.16259        4.59061       -1.20402
N         -0.82235        6.14037        0.46347
C         -2.17633        6.66451        0.31554
C         -2.23229        7.77842       -0.72527
C         -1.21808        8.87474       -0.38479
C          0.18758        8.28197       -0.21778
C          0.18230        7.14830        0.80952
C         -1.29001        9.96941       -1.42022
O         -2.09771       10.88546       -1.41763
O         -0.41906        9.83961       -2.43417
H          0.68105       -0.30860       -0.96116
H          0.76255       -0.86278        0.72364
H          2.15524        0.00393       -0.02241
H         -0.81280        2.89547        1.71446
H          0.23456        2.96302        3.12479
H          0.85441        4.93845        2.07576
H          2.10498        3.85436        1.44639
H          0.80020        3.59375       -0.58073
H         -2.48795        7.04525        1.29551
H         -2.86809        5.85890        0.04528
H         -3.24561        8.19523       -0.76704
H         -2.01820        7.37033       -1.72160
H         -1.49524        9.34030        0.57123
H          0.55022        7.88926       -1.17647
H          0.89275        9.06228        0.09198
H          1.18680        6.71862        0.84605
H         -0.06160        7.53211        1.80662
H         -0.63612       10.58324       -3.03491

--Link1--
%chk=JID_8371.chk
%mem=8GB
%nprocshared=4
# B3LYP/6-311++G(d,p) empiricaldispersion=gd3bj scf=xqc pop=npa geom=check

CID_61293551_JID_8371_Energie_neutraal

0 1

--Link1--
%chk=JID_8371.chk
%mem=8GB
%nprocshared=4
# B3LYP/6-311++G(d,p) empiricaldispersion=gd3bj scf=xqc pop=npa geom=check

CID_61293551_JID_8371_Energie_kation

1 2

--Link1--
%chk=JID_8371.chk
%mem=8GB
%nprocshared=4
# B3LYP/6-311++G(d,p) empiricaldispersion=gd3bj scf=xqc pop=npa geom=check

CID_61293551_JID_8371_Energie_anion

-1 2
