%chk=JID_5222.chk
%mem=8GB
%nprocshared=4
# opt freq B3LYP/6-31G(d) empiricaldispersion=gd3bj scf=xqc

CID_82618251_JID_5222_neutraal

0 1
C          0.93672       -0.01541       -0.07588
N          0.78891       -0.64540        1.22818
C         -0.61540       -0.69074        1.66817
C         -1.54818       -1.69431        0.94038
C         -1.15414       -3.13990        1.07591
C         -0.36262       -3.77144        2.02162
C         -0.29619       -5.15100        1.70385
C         -1.06154       -5.33196        0.56408
N         -1.61111       -4.12124        0.21297
C         -2.54855       -3.89600       -0.86991
C         -1.31685       -6.63008       -0.13941
C         -0.28812       -7.70150        0.23996
S         -0.11146       -7.89463        2.04920
C          0.46591       -6.20626        2.43901
O         -2.86348       -1.60153        1.48528
H          0.54137        1.00540       -0.07184
H          0.44229       -0.58902       -0.86554
H          1.99993        0.04671       -0.32827
H          1.15052       -1.59929        1.17765
H         -0.61648       -0.92271        2.74123
H         -1.05558        0.31383        1.61183
H         -1.61571       -1.41401       -0.11589
H          0.12920       -3.28829        2.85738
H         -2.90728       -4.84733       -1.26650
H         -3.40324       -3.33376       -0.48667
H         -2.03381       -3.33589       -1.65434
H         -1.27922       -6.48747       -1.22551
H         -2.32625       -6.97973        0.11084
H          0.69645       -7.45796       -0.17534
H         -0.58926       -8.66606       -0.18147
H          0.37176       -6.05783        3.51957
H          1.52870       -6.13768        2.18356
H         -2.83174       -2.03326        2.35742

--Link1--
%chk=JID_5222.chk
%mem=8GB
%nprocshared=4
# B3LYP/6-311++G(d,p) empiricaldispersion=gd3bj scf=xqc pop=npa geom=check

CID_82618251_JID_5222_Energie_neutraal

0 1

--Link1--
%chk=JID_5222.chk
%mem=8GB
%nprocshared=4
# B3LYP/6-311++G(d,p) empiricaldispersion=gd3bj scf=xqc pop=npa geom=check

CID_82618251_JID_5222_Energie_kation

1 2

--Link1--
%chk=JID_5222.chk
%mem=8GB
%nprocshared=4
# B3LYP/6-311++G(d,p) empiricaldispersion=gd3bj scf=xqc pop=npa geom=check

CID_82618251_JID_5222_Energie_anion

-1 2
