%chk=JID_5396.chk
%mem=8GB
%nprocshared=4
# opt freq B3LYP/6-31G(d) empiricaldispersion=gd3bj scf=xqc

CID_79907746_JID_5396_neutraal

0 1
C         -1.26300       -1.22900       -0.21900
C          0.18036       -1.44118        0.22914
C          1.13115       -0.45571       -0.44755
C          0.68537        0.99012       -0.24009
C         -0.75693        1.20134       -0.68917
C         -1.71536        0.22432        0.00963
N         -3.06587        0.44587       -0.53836
C         -4.08960        0.08329        0.36390
N         -4.77538       -1.02664        0.04427
C         -5.71930       -1.40494        0.91944
N         -6.02984       -0.79099        2.06982
C         -5.33156        0.33249        2.33026
C         -4.38031        0.87168        1.48475
N         -3.62601        2.01160        1.82759
O          2.44531       -0.62824        0.06850
H         -1.35348       -1.49039       -1.28136
H         -1.91539       -1.91953        0.32821
H          0.49548       -2.46843        0.00992
H          0.24958       -1.33655        1.31976
H          1.17440       -0.67174       -1.52138
H          0.78945        1.26431        0.81785
H          1.35337        1.66562       -0.78789
H         -0.82099        1.07706       -1.77825
H         -1.05722        2.23480       -0.47696
H         -1.67410        0.43315        1.08623
H         -3.21970       -0.19279       -1.32088
H         -6.28038       -2.30094        0.67654
H         -5.57633        0.81160        3.27326
H         -4.15712        2.70109        2.35017
H         -3.21764        2.40675        0.97808
H          2.42436       -0.44726        1.02386

--Link1--
%chk=JID_5396.chk
%mem=8GB
%nprocshared=4
# B3LYP/6-311++G(d,p) empiricaldispersion=gd3bj scf=xqc pop=npa geom=check

CID_79907746_JID_5396_Energie_neutraal

0 1

--Link1--
%chk=JID_5396.chk
%mem=8GB
%nprocshared=4
# B3LYP/6-311++G(d,p) empiricaldispersion=gd3bj scf=xqc pop=npa geom=check

CID_79907746_JID_5396_Energie_kation

1 2

--Link1--
%chk=JID_5396.chk
%mem=8GB
%nprocshared=4
# B3LYP/6-311++G(d,p) empiricaldispersion=gd3bj scf=xqc pop=npa geom=check

CID_79907746_JID_5396_Energie_anion

-1 2
