%chk=JID_756.chk
%mem=8GB
%nprocshared=4
# opt freq B3LYP/6-31G(d) empiricaldispersion=gd3bj scf=xqc

CID_22492780_JID_756_neutraal

0 1
C          1.04623        0.04867        0.07412
N          0.64358       -1.13952       -0.64483
C          1.07914       -2.40475       -0.34749
C          0.51415       -3.26708       -1.25843
C         -0.30479       -2.50287       -2.14514
C         -0.20158       -1.18218       -1.72990
N         -0.76792       -0.06361       -2.23003
C         -1.08128       -3.03598       -3.24956
O         -1.10218       -4.21033       -3.59444
O         -1.84189       -2.13627       -3.92161
H          0.16228        0.47709        0.55331
H          1.48434        0.75460       -0.63611
H          1.78741       -0.21463        0.83319
H          1.75541       -2.59127        0.47648
H          0.66537       -4.33897       -1.29446
H         -1.48460       -0.17000       -2.95055
H         -0.85339        0.79744       -1.70087
H         -2.26146       -2.69730       -4.60475

--Link1--
%chk=JID_756.chk
%mem=8GB
%nprocshared=4
# B3LYP/6-311++G(d,p) empiricaldispersion=gd3bj scf=xqc pop=npa geom=check

CID_22492780_JID_756_Energie_neutraal

0 1

--Link1--
%chk=JID_756.chk
%mem=8GB
%nprocshared=4
# B3LYP/6-311++G(d,p) empiricaldispersion=gd3bj scf=xqc pop=npa geom=check

CID_22492780_JID_756_Energie_kation

1 2

--Link1--
%chk=JID_756.chk
%mem=8GB
%nprocshared=4
# B3LYP/6-311++G(d,p) empiricaldispersion=gd3bj scf=xqc pop=npa geom=check

CID_22492780_JID_756_Energie_anion

-1 2
