%chk=JID_6154.chk
%mem=8GB
%nprocshared=4
# opt freq B3LYP/6-31G(d) empiricaldispersion=gd3bj scf=xqc

CID_104580196_JID_6154_neutraal

0 1
C         -2.77800        0.45500        0.00500
C         -1.35681        0.02804        0.10256
C         -0.88711       -1.27581        0.12272
S          0.82221       -1.27143        0.27143
C          0.81290        0.44429        0.26722
N         -0.37359        1.00344        0.18163
C          2.08798        1.20340        0.37102
C         -1.65303       -2.55972        0.03483
N         -2.29843       -2.83302        1.31911
C         -3.12490       -4.04876        1.39215
C         -2.23615       -5.30699        1.27840
C         -3.73800       -4.05050        2.80844
C         -4.23973       -4.14279        0.32110
C         -5.16225       -2.94523        0.21278
O         -5.02643       -2.06323       -0.62927
N         -6.21390       -2.91629        1.07853
H         -2.86316        1.54450        0.06759
H         -3.20700        0.13668       -0.94991
H         -3.36859        0.02386        0.81899
H          1.97643        2.19457       -0.08042
H          2.36409        1.33672        1.42159
H          2.90817        0.69357       -0.14434
H         -2.38912       -2.46005       -0.76892
H         -0.97953       -3.37717       -0.24499
H         -1.57926       -2.84871        2.04289
H         -1.40782       -5.28034        1.99628
H         -2.81652       -6.21449        1.48305
H         -1.80752       -5.41686        0.27651
H         -4.29613       -3.13044        3.01417
H         -4.42251       -4.89595        2.94264
H         -2.96252       -4.13343        3.58010
H         -3.80605       -4.30241       -0.67490
H         -4.86244       -5.02845        0.50835
H         -6.32201       -3.56361        1.84491
H         -6.81638       -2.10409        1.04304

--Link1--
%chk=JID_6154.chk
%mem=8GB
%nprocshared=4
# B3LYP/6-311++G(d,p) empiricaldispersion=gd3bj scf=xqc pop=npa geom=check

CID_104580196_JID_6154_Energie_neutraal

0 1

--Link1--
%chk=JID_6154.chk
%mem=8GB
%nprocshared=4
# B3LYP/6-311++G(d,p) empiricaldispersion=gd3bj scf=xqc pop=npa geom=check

CID_104580196_JID_6154_Energie_kation

1 2

--Link1--
%chk=JID_6154.chk
%mem=8GB
%nprocshared=4
# B3LYP/6-311++G(d,p) empiricaldispersion=gd3bj scf=xqc pop=npa geom=check

CID_104580196_JID_6154_Energie_anion

-1 2
