%chk=JID_3396.chk
%mem=8GB
%nprocshared=4
# opt freq B3LYP/6-31G(d) empiricaldispersion=gd3bj scf=xqc

CID_143556943_JID_3396_neutraal

0 1
C          1.05798        0.05653        0.05868
C          0.28327       -0.99388       -0.75049
C         -0.56539       -1.88707        0.18612
C          0.07504       -3.18802        0.57025
C          1.08983       -3.72237       -0.13291
C          1.58639       -3.03637       -1.31458
C          1.24880       -1.77479       -1.64996
N          1.70110       -1.08915       -2.76838
C          2.60932       -1.44757       -3.72730
C          3.00776       -0.69091       -4.75343
C          1.67645       -5.04405        0.22901
O          2.58097       -5.60794       -0.36429
O          1.10759       -5.61747        1.30554
H          0.37279        0.66470        0.65926
H          1.61026        0.73881       -0.59669
H          1.77715       -0.41304        0.73910
H         -0.42565       -0.45103       -1.39135
H         -0.82672       -1.33650        1.09805
H         -1.51602       -2.12405       -0.30919
H         -0.34277       -3.70266        1.43145
H          2.26778       -3.61081       -1.93536
H          1.32959       -0.14794       -2.87158
H          3.03290       -2.44227       -3.61482
H          3.73999       -1.06626       -5.46076
H          2.62140        0.30930       -4.91160
H          1.59389       -6.46313        1.39269

--Link1--
%chk=JID_3396.chk
%mem=8GB
%nprocshared=4
# B3LYP/6-311++G(d,p) empiricaldispersion=gd3bj scf=xqc pop=npa geom=check

CID_143556943_JID_3396_Energie_neutraal

0 1

--Link1--
%chk=JID_3396.chk
%mem=8GB
%nprocshared=4
# B3LYP/6-311++G(d,p) empiricaldispersion=gd3bj scf=xqc pop=npa geom=check

CID_143556943_JID_3396_Energie_kation

1 2

--Link1--
%chk=JID_3396.chk
%mem=8GB
%nprocshared=4
# B3LYP/6-311++G(d,p) empiricaldispersion=gd3bj scf=xqc pop=npa geom=check

CID_143556943_JID_3396_Energie_anion

-1 2
