%chk=JID_6158.chk
%mem=8GB
%nprocshared=4
# opt freq B3LYP/6-31G(d) empiricaldispersion=gd3bj scf=xqc

CID_106935083_JID_6158_neutraal

0 1
C          1.05423       -0.06134        0.05741
N          0.52961        1.23318       -0.37404
C         -0.76155        1.23041       -0.97981
C         -1.77948        0.41802       -0.47582
C         -3.00804        0.41488       -1.11700
N         -3.27856        1.13653       -2.22317
C         -2.27329        1.88741       -2.71552
C         -1.01450        1.96210       -2.14083
C          1.37387        2.34192       -0.25887
O          2.58316        2.21057       -0.04230
C          0.74080        3.73023       -0.18593
C          1.67163        4.80918       -0.74975
C          1.74629        4.75769       -2.25661
C          2.91090        5.38679       -2.98318
C          2.77122        3.89151       -2.94601
N          1.15468        6.14066       -0.41119
H          0.74507       -0.84928       -0.63746
H          0.67435       -0.27607        1.06116
H          2.14697       -0.06502        0.10016
H         -1.64702       -0.18281        0.41630
H         -3.83185       -0.18772       -0.74452
H         -2.50771        2.43723       -3.62285
H         -0.24439        2.54667       -2.62929
H         -0.23998        3.78992       -0.65580
H          0.57290        3.91452        0.88442
H          2.67198        4.71720       -0.31082
H          0.77217        4.84096       -2.72789
H          2.71317        5.89149       -3.92187
H          3.71242        5.82940       -2.40201
H          3.48273        3.33665       -2.34298
H          2.48086        3.38445       -3.85901
H          1.78887        6.84439       -0.78792
H          0.25527        6.29428       -0.86248

--Link1--
%chk=JID_6158.chk
%mem=8GB
%nprocshared=4
# B3LYP/6-311++G(d,p) empiricaldispersion=gd3bj scf=xqc pop=npa geom=check

CID_106935083_JID_6158_Energie_neutraal

0 1

--Link1--
%chk=JID_6158.chk
%mem=8GB
%nprocshared=4
# B3LYP/6-311++G(d,p) empiricaldispersion=gd3bj scf=xqc pop=npa geom=check

CID_106935083_JID_6158_Energie_kation

1 2

--Link1--
%chk=JID_6158.chk
%mem=8GB
%nprocshared=4
# B3LYP/6-311++G(d,p) empiricaldispersion=gd3bj scf=xqc pop=npa geom=check

CID_106935083_JID_6158_Energie_anion

-1 2
