%chk=JID_1887.chk
%mem=8GB
%nprocshared=4
# opt freq B3LYP/6-31G(d) empiricaldispersion=gd3bj scf=xqc

CID_67831879_JID_1887_neutraal

0 1
C          1.03186       -0.07133        0.06242
C          1.36974       -0.16648        1.54208
C          1.26455        1.16859        2.28290
C         -0.10382        1.83916        2.19262
O         -1.11377        0.97361        2.72147
N         -2.17952        0.81840        1.73203
C         -2.42371       -0.63540        1.64190
C         -2.98330       -1.27558        2.93032
N         -4.20966       -0.61278        3.41036
C         -3.92716        0.82442        3.58225
C         -3.36068        1.48897        2.30869
H         -0.00890        0.21266       -0.10853
H          1.19169       -1.04100       -0.42019
H          1.67345        0.66221       -0.43631
H          0.72402       -0.91134        2.01927
H          2.39605       -0.53973        1.64434
H          1.49883        0.98163        3.33827
H          2.02677        1.85892        1.90257
H         -0.10089        2.74690        2.80627
H         -0.31654        2.15058        1.16256
H         -3.13207       -0.80903        0.82169
H         -1.50329       -1.15267        1.35184
H         -2.22573       -1.26158        3.72338
H         -3.21078       -2.32989        2.73660
H         -4.92003       -0.70825        2.68524
H         -3.23330        0.96010        4.42048
H         -4.85843        1.32882        3.86319
H         -3.12003        2.53826        2.51803
H         -4.14422        1.50707        1.54017

--Link1--
%chk=JID_1887.chk
%mem=8GB
%nprocshared=4
# B3LYP/6-311++G(d,p) empiricaldispersion=gd3bj scf=xqc pop=npa geom=check

CID_67831879_JID_1887_Energie_neutraal

0 1

--Link1--
%chk=JID_1887.chk
%mem=8GB
%nprocshared=4
# B3LYP/6-311++G(d,p) empiricaldispersion=gd3bj scf=xqc pop=npa geom=check

CID_67831879_JID_1887_Energie_kation

1 2

--Link1--
%chk=JID_1887.chk
%mem=8GB
%nprocshared=4
# B3LYP/6-311++G(d,p) empiricaldispersion=gd3bj scf=xqc pop=npa geom=check

CID_67831879_JID_1887_Energie_anion

-1 2
