%chk=JID_4936.chk
%mem=8GB
%nprocshared=4
# opt freq B3LYP/6-31G(d) empiricaldispersion=gd3bj scf=xqc

CID_75132412_JID_4936_neutraal

0 1
C          2.49200        0.00400       -0.01400
C          0.99231        0.04977       -0.00760
C          0.25572       -1.14346        0.03022
C         -1.14877       -1.13135        0.03506
C         -1.80738        0.10602        0.00048
C         -1.08200        1.29703       -0.04358
C          0.31149        1.26975       -0.04850
C         -1.91387       -2.44192        0.08841
C         -2.73923       -2.56283        1.37503
C         -3.36602       -3.94482        1.42761
N         -4.07102       -4.27803        0.21206
C         -3.67238       -3.88236       -1.03472
O         -4.09512       -4.46640       -2.02919
C         -2.82128       -2.63548       -1.13011
H          2.85692       -0.53949        0.86354
H          2.84919       -0.49419       -0.92092
H          2.92505        1.00935        0.01240
H          0.78991       -2.09181        0.05684
H         -2.89361        0.15777        0.00658
H         -1.60515        2.24934       -0.07435
H          0.86063        2.20764       -0.08400
H         -1.18422       -3.26484        0.08759
H         -2.11153       -2.40761        2.26062
H         -3.52805       -1.80035        1.40190
H         -2.59457       -4.70965        1.57167
H         -4.07504       -4.02054        2.25774
H         -4.63048       -5.12356        0.19776
H         -2.20848       -2.70780       -2.03680
H         -3.50892       -1.79183       -1.26260

--Link1--
%chk=JID_4936.chk
%mem=8GB
%nprocshared=4
# B3LYP/6-311++G(d,p) empiricaldispersion=gd3bj scf=xqc pop=npa geom=check

CID_75132412_JID_4936_Energie_neutraal

0 1

--Link1--
%chk=JID_4936.chk
%mem=8GB
%nprocshared=4
# B3LYP/6-311++G(d,p) empiricaldispersion=gd3bj scf=xqc pop=npa geom=check

CID_75132412_JID_4936_Energie_kation

1 2

--Link1--
%chk=JID_4936.chk
%mem=8GB
%nprocshared=4
# B3LYP/6-311++G(d,p) empiricaldispersion=gd3bj scf=xqc pop=npa geom=check

CID_75132412_JID_4936_Energie_anion

-1 2
