%chk=JID_5847.chk
%mem=8GB
%nprocshared=4
# opt freq B3LYP/6-31G(d) empiricaldispersion=gd3bj scf=xqc

CID_61024352_JID_5847_neutraal

0 1
C          0.72100        1.17000        0.25400
C         -0.72068        1.05826       -0.23951
O         -1.42253        0.04387        0.49315
C         -0.75367       -1.23046        0.34304
C          0.69526       -1.11096        0.83606
O          1.39773       -0.08829        0.11294
C         -1.51565       -2.28548        1.16592
N         -2.89296       -2.45513        0.68371
C         -3.03522       -3.28438       -0.42744
N         -3.54737       -2.71508       -1.53044
C         -3.72661       -3.51100       -2.61444
C         -3.37294       -4.85581       -2.68731
C         -2.90519       -5.42804       -1.51052
C         -2.71720       -4.63629       -0.37633
N         -3.69847       -5.65414       -3.78803
H          1.26830        1.91626       -0.32905
H          0.75225        1.46469        1.30910
H         -0.75308        0.80509       -1.30534
H         -1.24760        2.00587       -0.09464
H         -0.76580       -1.49140       -0.72283
H          1.23240       -2.05270        0.68530
H          0.73391       -0.86372        1.90373
H         -0.97022       -3.23598        1.18657
H         -1.59013       -1.93869        2.20367
H         -3.25441       -1.54682        0.37753
H         -4.18811       -3.01205       -3.46165
H         -2.69762       -6.49225       -1.45569
H         -2.36751       -5.08501        0.54647
H         -3.74302       -5.15107       -4.66920
H         -3.14975       -6.50552       -3.85854

--Link1--
%chk=JID_5847.chk
%mem=8GB
%nprocshared=4
# B3LYP/6-311++G(d,p) empiricaldispersion=gd3bj scf=xqc pop=npa geom=check

CID_61024352_JID_5847_Energie_neutraal

0 1

--Link1--
%chk=JID_5847.chk
%mem=8GB
%nprocshared=4
# B3LYP/6-311++G(d,p) empiricaldispersion=gd3bj scf=xqc pop=npa geom=check

CID_61024352_JID_5847_Energie_kation

1 2

--Link1--
%chk=JID_5847.chk
%mem=8GB
%nprocshared=4
# B3LYP/6-311++G(d,p) empiricaldispersion=gd3bj scf=xqc pop=npa geom=check

CID_61024352_JID_5847_Energie_anion

-1 2
