%chk=JID_4847.chk
%mem=8GB
%nprocshared=4
# opt freq B3LYP/6-31G(d) empiricaldispersion=gd3bj scf=xqc

CID_91038180_JID_4847_neutraal

0 1
C          0.93912       -0.06828        0.04039
C          0.38065       -1.20672        0.87857
C          0.78824       -1.13799        2.35203
C          0.28761        0.09700        3.09771
N         -1.16940        0.26671        3.02999
C         -1.82773        1.35575        2.47607
C         -3.16890        1.10391        2.57178
N         -3.30353       -0.12881        3.18904
C         -2.08570       -0.58294        3.51302
O         -1.83920       -1.78701        4.09681
S         -1.75431       -1.67197        5.69440
O         -0.34674       -1.30221        6.03615
O         -1.86601       -3.23360        6.02144
C         -4.55136       -0.84075        3.42541
H          0.51989        0.89627        0.34008
H          0.69193       -0.22295       -1.01484
H          2.02883       -0.01402        0.12797
H         -0.71105       -1.22696        0.78664
H          0.74539       -2.15440        0.46423
H          0.41891       -2.04076        2.85088
H          1.88199       -1.17318        2.42709
H          0.57579        0.04751        4.15125
H          0.76254        0.99868        2.69407
H         -1.25175        2.16761        2.06469
H         -4.04989        1.64085        2.26262
H         -1.10406       -3.46443        6.60745
H         -4.44438       -1.87737        3.09482
H         -4.77932       -0.81152        4.49390
H         -5.36481       -0.37019        2.86654

--Link1--
%chk=JID_4847.chk
%mem=8GB
%nprocshared=4
# B3LYP/6-311++G(d,p) empiricaldispersion=gd3bj scf=xqc pop=npa geom=check

CID_91038180_JID_4847_Energie_neutraal

0 1

--Link1--
%chk=JID_4847.chk
%mem=8GB
%nprocshared=4
# B3LYP/6-311++G(d,p) empiricaldispersion=gd3bj scf=xqc pop=npa geom=check

CID_91038180_JID_4847_Energie_kation

1 2

--Link1--
%chk=JID_4847.chk
%mem=8GB
%nprocshared=4
# B3LYP/6-311++G(d,p) empiricaldispersion=gd3bj scf=xqc pop=npa geom=check

CID_91038180_JID_4847_Energie_anion

-1 2
