%chk=JID_3990.chk
%mem=8GB
%nprocshared=4
# opt freq B3LYP/6-31G(d) empiricaldispersion=gd3bj scf=xqc

CID_46917389_JID_3990_neutraal

0 1
C          0.94130        0.06815       -0.04370
C          0.73418        0.26441       -1.53936
C          0.89707       -1.03325       -2.35365
N         -0.17953       -1.98962       -2.06593
O         -0.58462        0.77379       -1.75112
C          1.44609       -0.08678        4.06267
C          0.64673       -1.25677        3.55614
O         -0.42416       -1.09469        2.97336
C          1.19790       -2.63921        3.83817
C          0.82873       -3.62465        2.73471
C          1.45384       -3.28411        1.40824
O          0.96253       -3.47695        0.30790
O          2.71125       -2.81266        1.51072
H          0.18210       -0.59664        0.37841
H          0.83818        1.02450        0.48064
H          1.93384       -0.33816        0.16952
H          1.44236        1.01477       -1.90661
H          0.83749       -0.78678       -3.41971
H          1.87312       -1.49298       -2.16688
H         -0.09608       -2.78309       -2.70232
H         -0.02089       -2.40279       -1.13621
H         -1.15000       -0.02739       -1.78161
H          1.55459       -0.15784        5.14737
H          0.92974        0.84556        3.81722
H          2.42777       -0.08059        3.58237
H          2.28494       -2.57422        3.95466
H          0.78095       -2.97059        4.79527
H          1.16057       -4.63181        3.00857
H         -0.25815       -3.65271        2.59762
H          3.00663       -2.71700        0.58045

--Link1--
%chk=JID_3990.chk
%mem=8GB
%nprocshared=4
# B3LYP/6-311++G(d,p) empiricaldispersion=gd3bj scf=xqc pop=npa geom=check

CID_46917389_JID_3990_Energie_neutraal

0 1

--Link1--
%chk=JID_3990.chk
%mem=8GB
%nprocshared=4
# B3LYP/6-311++G(d,p) empiricaldispersion=gd3bj scf=xqc pop=npa geom=check

CID_46917389_JID_3990_Energie_kation

1 2

--Link1--
%chk=JID_3990.chk
%mem=8GB
%nprocshared=4
# B3LYP/6-311++G(d,p) empiricaldispersion=gd3bj scf=xqc pop=npa geom=check

CID_46917389_JID_3990_Energie_anion

-1 2
