%chk=JID_8199.chk
%mem=8GB
%nprocshared=4
# opt freq B3LYP/6-31G(d) empiricaldispersion=gd3bj scf=xqc

CID_105593173_JID_8199_neutraal

0 1
C          0.94449        0.01491       -0.08183
C          0.03428       -1.15027       -0.50245
C          0.89292       -2.38500       -0.89495
N          1.57681       -2.98983        0.26629
C          0.58540       -3.35987        1.29569
C         -0.30307       -2.17479        1.72517
N         -0.92363       -1.50154        0.57222
C         -2.22653       -1.03531        0.71656
O         -2.80463       -1.14887        1.80590
C         -3.02732       -0.46806       -0.47013
C         -2.50851        0.90437       -0.98311
C         -2.35483        1.03395       -2.50153
C         -3.39901        2.04725       -0.46984
C         -3.37862       -1.51610       -1.54297
N         -4.46062       -1.47892       -2.27910
O         -5.28086       -0.39332       -1.96591
N         -2.54208       -2.57989       -1.77755
C          2.36404       -4.15214       -0.13928
H          0.37354        0.86213        0.30641
H          1.53358        0.36414       -0.93650
H          1.64783       -0.27462        0.70597
H         -0.51979       -0.83941       -1.38671
H          0.24725       -3.13210       -1.37435
H          1.63577       -2.07573       -1.64087
H          1.10092       -3.74307        2.18437
H         -0.06205       -4.16358        0.91949
H          0.28608       -1.42813        2.27023
H         -1.06712       -2.54812        2.41524
H         -4.00203       -0.26532        0.00316
H         -1.52929        1.10150       -0.54625
H         -3.32118        1.01936       -3.01394
H         -1.87312        1.98604       -2.75217
H         -1.73097        0.23889       -2.91885
H         -3.46632        2.02609        0.62321
H         -2.98523        3.02014       -0.75675
H         -4.41307        1.98084       -0.87687
H         -6.02787       -0.51035       -2.58160
H         -2.08900       -2.96163       -0.95255
H         -3.01177       -3.29834       -2.32155
H          1.74388       -4.94129       -0.57934
H          3.12505       -3.86274       -0.87237
H          2.89857       -4.57213        0.71990

--Link1--
%chk=JID_8199.chk
%mem=8GB
%nprocshared=4
# B3LYP/6-311++G(d,p) empiricaldispersion=gd3bj scf=xqc pop=npa geom=check

CID_105593173_JID_8199_Energie_neutraal

0 1

--Link1--
%chk=JID_8199.chk
%mem=8GB
%nprocshared=4
# B3LYP/6-311++G(d,p) empiricaldispersion=gd3bj scf=xqc pop=npa geom=check

CID_105593173_JID_8199_Energie_kation

1 2

--Link1--
%chk=JID_8199.chk
%mem=8GB
%nprocshared=4
# B3LYP/6-311++G(d,p) empiricaldispersion=gd3bj scf=xqc pop=npa geom=check

CID_105593173_JID_8199_Energie_anion

-1 2
