%chk=JID_5937.chk
%mem=8GB
%nprocshared=4
# opt freq B3LYP/6-31G(d) empiricaldispersion=gd3bj scf=xqc

CID_112939685_JID_5937_neutraal

0 1
C          0.94798        0.03945        0.07575
O          0.39726       -1.26493       -0.05849
C          1.30216       -2.27646        0.40764
C          1.55722       -3.29198       -0.71241
N          2.09804       -2.58890       -1.88108
C          2.48084       -3.41474       -2.95194
C          2.87236       -2.83400       -4.14582
N          3.29799       -3.57114       -5.18445
N          3.36962       -4.91025       -5.01376
C          3.01043       -5.46216       -3.83160
N          2.55215       -4.74754       -2.79244
N          3.10323       -6.83341       -3.61524
C          2.89722       -7.63551       -4.79675
C          2.99743       -9.06675       -4.36147
C          1.99573       -9.95597       -4.40898
H          0.21205        0.76211       -0.28673
H          1.85690        0.13630       -0.52588
H          1.16287        0.25682        1.12655
H          2.25119       -1.84431        0.74891
H          0.83159       -2.77713        1.26015
H          2.25563       -4.05144       -0.34270
H          0.61108       -3.77495       -0.98602
H          1.42704       -1.88720       -2.19232
H          2.86203       -1.76346       -4.29811
H          2.49221       -7.04389       -2.83468
H          1.91789       -7.43119       -5.24709
H          3.67173       -7.44964       -5.55047
H          3.97002       -9.38526       -3.99185
H          2.14911      -10.97892       -4.07891
H          1.00933       -9.68821       -4.77411

--Link1--
%chk=JID_5937.chk
%mem=8GB
%nprocshared=4
# B3LYP/6-311++G(d,p) empiricaldispersion=gd3bj scf=xqc pop=npa geom=check

CID_112939685_JID_5937_Energie_neutraal

0 1

--Link1--
%chk=JID_5937.chk
%mem=8GB
%nprocshared=4
# B3LYP/6-311++G(d,p) empiricaldispersion=gd3bj scf=xqc pop=npa geom=check

CID_112939685_JID_5937_Energie_kation

1 2

--Link1--
%chk=JID_5937.chk
%mem=8GB
%nprocshared=4
# B3LYP/6-311++G(d,p) empiricaldispersion=gd3bj scf=xqc pop=npa geom=check

CID_112939685_JID_5937_Energie_anion

-1 2
