%chk=JID_10474.chk
%mem=8GB
%nprocshared=4
# opt freq B3LYP/6-31G(d) empiricaldispersion=gd3bj scf=xqc

CID_115679003_JID_10474_neutraal

0 1
C          1.05732       -0.05884        0.05702
C          1.59673        1.17155       -0.65667
N          1.65915        0.99630       -2.10946
C          0.40653        1.14269       -2.87662
C         -0.20133        2.55066       -2.82746
O          0.73702        3.49741       -3.34342
C          0.22286        4.82757       -3.30177
C          1.27631        5.76464       -3.85754
C          2.82361        0.40331       -2.61554
O          3.74304        0.00641       -1.90023
C          2.96650        0.17816       -4.07214
C          3.04620        1.23870       -5.00151
C          3.31250        0.87231       -6.33963
C          3.41452       -0.47268       -6.74631
C          3.29641       -1.49146       -5.80707
C          3.08568       -1.16641       -4.47092
N          3.46040        1.89420       -7.37666
O          4.23666        1.65234       -8.31288
O          2.76912        2.92093       -7.28038
N          3.11784        2.57921       -4.56315
H          0.02812       -0.27463       -0.24583
H          1.06440        0.09876        1.14003
H          1.66325       -0.94351       -0.16346
H          0.98555        2.04647       -0.42027
H          2.60266        1.38820       -0.27823
H          0.57020        0.87139       -3.92166
H         -0.31099        0.41674       -2.47892
H         -1.10733        2.56996       -3.44426
H         -0.47876        2.82574       -1.80496
H         -0.68896        4.89010       -3.90554
H         -0.01020        5.10137       -2.26701
H          1.52766        5.49438       -4.88846
H          0.92597        6.80039       -3.83963
H          2.20095        5.69369       -3.27515
H          3.60329       -0.73003       -7.78739
H          3.39579       -2.53187       -6.10789
H          3.03909       -1.95733       -3.72354
H          2.55960        2.76627       -3.72168
H          2.85243        3.25878       -5.28053

--Link1--
%chk=JID_10474.chk
%mem=8GB
%nprocshared=4
# B3LYP/6-311++G(d,p) empiricaldispersion=gd3bj scf=xqc pop=npa geom=check

CID_115679003_JID_10474_Energie_neutraal

0 1

--Link1--
%chk=JID_10474.chk
%mem=8GB
%nprocshared=4
# B3LYP/6-311++G(d,p) empiricaldispersion=gd3bj scf=xqc pop=npa geom=check

CID_115679003_JID_10474_Energie_kation

1 2

--Link1--
%chk=JID_10474.chk
%mem=8GB
%nprocshared=4
# B3LYP/6-311++G(d,p) empiricaldispersion=gd3bj scf=xqc pop=npa geom=check

CID_115679003_JID_10474_Energie_anion

-1 2
