%chk=JID_9003.chk
%mem=8GB
%nprocshared=4
# opt freq B3LYP/6-31G(d) empiricaldispersion=gd3bj scf=xqc

CID_14230919_JID_9003_neutraal

0 1
C          0.95369        0.02444        0.08519
C          0.35760        0.18077        1.47707
C          0.60416        1.56354        2.08561
C         -0.15536        2.70268        1.40893
O         -1.53686        2.69573        1.80369
C         -2.42967        2.21694        0.90582
O         -2.19426        1.74920       -0.19689
C         -3.78306        2.39412        1.43571
C         -4.46432        3.52749        1.17474
S         -6.09084        3.86702        1.73829
C         -6.18435        5.41346        0.98243
C         -5.13366        5.83756        0.28029
S         -3.75354        4.80959        0.17826
S         -4.35153        1.07576        2.38649
O         -3.23210        0.18272        2.64861
O         -5.08478        1.57274        3.53847
C         -5.48149        0.11898        1.35901
C         -6.93452        0.22141        1.81439
C         -5.35539        0.36886       -0.13770
H          0.47087        0.68733       -0.63798
H          0.81976       -1.00365       -0.26641
H          2.02641        0.24213        0.09085
H         -0.71277       -0.04405        1.44717
H          0.81627       -0.57033        2.13162
H          0.31482        1.52445        3.14304
H          1.67858        1.77939        2.05006
H          0.25189        3.65474        1.76730
H         -0.03373        2.70484        0.32094
H         -7.08281        6.01057        1.08958
H         -5.12572        6.79975       -0.21900
H         -5.17800       -0.92259        1.53284
H         -7.33812        1.22649        1.67689
H         -7.56615       -0.46826        1.24376
H         -7.03732       -0.04231        2.87220
H         -4.32724        0.21905       -0.47847
H         -5.98609       -0.33188       -0.69619
H         -5.67037        1.37862       -0.41523

--Link1--
%chk=JID_9003.chk
%mem=8GB
%nprocshared=4
# B3LYP/6-311++G(d,p) empiricaldispersion=gd3bj scf=xqc pop=npa geom=check

CID_14230919_JID_9003_Energie_neutraal

0 1

--Link1--
%chk=JID_9003.chk
%mem=8GB
%nprocshared=4
# B3LYP/6-311++G(d,p) empiricaldispersion=gd3bj scf=xqc pop=npa geom=check

CID_14230919_JID_9003_Energie_kation

1 2

--Link1--
%chk=JID_9003.chk
%mem=8GB
%nprocshared=4
# B3LYP/6-311++G(d,p) empiricaldispersion=gd3bj scf=xqc pop=npa geom=check

CID_14230919_JID_9003_Energie_anion

-1 2
