%chk=JID_8090.chk
%mem=8GB
%nprocshared=4
# opt freq B3LYP/6-31G(d) empiricaldispersion=gd3bj scf=xqc

CID_110965968_JID_8090_neutraal

0 1
C          0.93651       -0.05013       -0.05879
C          0.27918       -1.37959       -0.38860
N          0.01250       -2.10811        0.84795
C         -0.76509       -3.22938        0.82935
N         -0.49306       -4.39456        1.30401
C          0.76649       -4.62842        2.00964
C          1.99391       -4.67060        1.12585
C          3.22090       -4.18002        1.59908
C          4.36530       -4.23356        0.79884
C          4.28501       -4.78845       -0.47417
C          3.08397       -5.29287       -0.95555
C          1.94241       -5.24080       -0.15462
O          5.37707       -4.86135       -1.28750
N         -1.96953       -3.09814        0.19552
C         -3.10908       -2.38953        0.81924
C         -4.32343       -2.59229       -0.10634
C         -3.42559       -2.99518        2.19548
C         -2.85449       -0.88445        0.95675
H          0.28455        0.56339        0.57194
H          1.15081        0.50730       -0.97575
H          1.87891       -0.19945        0.47891
H         -0.63675       -1.19415       -0.95744
H          0.94710       -1.97348       -1.02275
H          0.88661       -2.26628        1.33327
H          0.88862       -3.88585        2.80870
H          0.69283       -5.59890        2.51547
H          3.29269       -3.75558        2.59808
H          5.30215       -3.84538        1.18516
H          3.03418       -5.73005       -1.94842
H          1.00418       -5.64169       -0.53355
H          6.14326       -4.50650       -0.80849
H         -2.27344       -4.05668        0.02965
H         -4.56151       -3.65611       -0.22334
H         -5.21495       -2.09249        0.28868
H         -4.12710       -2.19106       -1.10755
H         -2.60156       -2.84061        2.90114
H         -4.32186       -2.53957        2.63132
H         -3.59899       -4.07512        2.12438
H         -2.03873       -0.66828        1.65366
H         -2.60570       -0.43019       -0.00800
H         -3.74405       -0.37078        1.34005

--Link1--
%chk=JID_8090.chk
%mem=8GB
%nprocshared=4
# B3LYP/6-311++G(d,p) empiricaldispersion=gd3bj scf=xqc pop=npa geom=check

CID_110965968_JID_8090_Energie_neutraal

0 1

--Link1--
%chk=JID_8090.chk
%mem=8GB
%nprocshared=4
# B3LYP/6-311++G(d,p) empiricaldispersion=gd3bj scf=xqc pop=npa geom=check

CID_110965968_JID_8090_Energie_kation

1 2

--Link1--
%chk=JID_8090.chk
%mem=8GB
%nprocshared=4
# B3LYP/6-311++G(d,p) empiricaldispersion=gd3bj scf=xqc pop=npa geom=check

CID_110965968_JID_8090_Energie_anion

-1 2
