%chk=JID_10531.chk
%mem=8GB
%nprocshared=4
# opt freq B3LYP/6-31G(d) empiricaldispersion=gd3bj scf=xqc

CID_79652491_JID_10531_neutraal

0 1
C          1.06918       -0.07154        0.00982
C          0.66683       -0.60704       -1.36143
C          1.42935       -1.85097       -1.80646
O         -0.74699       -0.70262       -1.55532
C         -1.56433       -1.52002       -0.83803
C         -2.92138       -1.38886       -1.16474
C         -3.90088       -2.15853       -0.53106
C         -3.53075       -3.06861        0.45274
C         -2.18310       -3.18795        0.79579
C         -1.19716       -2.43648        0.13951
C         -1.79737       -4.17059        1.82863
O         -1.98020       -5.35618        1.56408
N         -1.25124       -3.70909        3.02916
C         -1.02574       -2.29900        3.32681
C         -0.67900       -4.69006        3.95897
C         -1.62129       -5.21603        5.08401
C         -2.91326       -5.81868        4.49570
C         -0.87807       -6.35371        5.82254
C         -2.03234       -4.11528        6.09455
N         -0.91196       -3.47733        6.78684
H          0.94784       -0.80902        0.80565
H          0.45602        0.79538        0.27777
H          2.12096        0.23331        0.00888
H          0.96209        0.17758       -2.07087
H          1.29861       -2.69519       -1.12666
H          1.08247       -2.17870       -2.79226
H          2.50276       -1.64333       -1.86708
H         -3.21826       -0.67939       -1.93496
H         -4.94497       -2.04960       -0.81201
H         -4.27901       -3.68404        0.94531
H         -0.16621       -2.60649        0.41701
H         -1.09728       -2.11536        4.39878
H         -0.02031       -2.03237        2.98822
H         -1.75909       -1.66286        2.82625
H         -0.33679       -5.54790        3.36459
H          0.23181       -4.25344        4.38813
H         -2.69043       -6.61721        3.78003
H         -3.53780       -6.25506        5.28418
H         -3.51824       -5.06030        3.98772
H          0.09188       -6.02191        6.20815
H         -1.46629       -6.72863        6.66776
H         -0.68768       -7.19965        5.15174
H         -2.61703       -3.34026        5.58659
H         -2.69653       -4.54356        6.85605
H         -1.27748       -2.76515        7.41944
H         -0.44769       -4.15981        7.38570

--Link1--
%chk=JID_10531.chk
%mem=8GB
%nprocshared=4
# B3LYP/6-311++G(d,p) empiricaldispersion=gd3bj scf=xqc pop=npa geom=check

CID_79652491_JID_10531_Energie_neutraal

0 1

--Link1--
%chk=JID_10531.chk
%mem=8GB
%nprocshared=4
# B3LYP/6-311++G(d,p) empiricaldispersion=gd3bj scf=xqc pop=npa geom=check

CID_79652491_JID_10531_Energie_kation

1 2

--Link1--
%chk=JID_10531.chk
%mem=8GB
%nprocshared=4
# B3LYP/6-311++G(d,p) empiricaldispersion=gd3bj scf=xqc pop=npa geom=check

CID_79652491_JID_10531_Energie_anion

-1 2
