%chk=JID_10335.chk
%mem=8GB
%nprocshared=4
# opt freq B3LYP/6-31G(d) empiricaldispersion=gd3bj scf=xqc

CID_106400554_JID_10335_neutraal

0 1
C         -2.18800       -0.07600        0.00700
C         -0.72956        0.11871        0.06913
N         -0.01982        1.20908       -0.10688
C          1.26316        0.75084        0.07894
N          1.35695       -0.55911        0.35335
O          0.02610       -0.98320        0.34521
C          2.46987        1.64356       -0.00962
N          3.37940        1.66105        1.15488
C          4.67493        1.22104        0.92063
C          5.62902        1.82848        0.08819
C          6.90899        1.24546        0.00848
C          7.19544        0.10562        0.75836
C          6.20960       -0.42244        1.56503
N          4.97112        0.11901        1.65616
N          8.50855       -0.52039        0.70963
O          8.69767       -1.51819        1.41795
O          9.35639       -0.01702       -0.03952
C          5.35122        3.07615       -0.67672
O          4.30413        3.68061       -0.78880
O          6.44572        3.52311       -1.32580
H         -2.45410       -0.69732       -0.85310
H         -2.55094       -0.56562        0.91554
H         -2.70209        0.88467       -0.09167
H          2.99746        1.37416       -0.93414
H          2.10104        2.66745       -0.14343
H          3.02257        1.00241        1.85173
H          7.67658        1.68630       -0.62458
H          6.36185       -1.30504        2.18175
H          6.13429        4.33522       -1.78119

--Link1--
%chk=JID_10335.chk
%mem=8GB
%nprocshared=4
# B3LYP/6-311++G(d,p) empiricaldispersion=gd3bj scf=xqc pop=npa geom=check

CID_106400554_JID_10335_Energie_neutraal

0 1

--Link1--
%chk=JID_10335.chk
%mem=8GB
%nprocshared=4
# B3LYP/6-311++G(d,p) empiricaldispersion=gd3bj scf=xqc pop=npa geom=check

CID_106400554_JID_10335_Energie_kation

1 2

--Link1--
%chk=JID_10335.chk
%mem=8GB
%nprocshared=4
# B3LYP/6-311++G(d,p) empiricaldispersion=gd3bj scf=xqc pop=npa geom=check

CID_106400554_JID_10335_Energie_anion

-1 2
