%chk=JID_8239.chk
%mem=8GB
%nprocshared=4
# opt freq B3LYP/6-31G(d) empiricaldispersion=gd3bj scf=xqc

CID_149687781_JID_8239_neutraal

0 1
C          0.96558       -0.05522       -0.07593
C          0.71976        1.25146       -0.79446
C          1.50904        1.44892       -2.07104
O          0.98559        1.21436       -3.16484
N          2.76791        1.96780       -2.09302
C          3.93491        1.74168       -1.20560
C          4.33784        0.25124       -1.37065
C          5.15017        2.55877       -1.76723
C          4.95819        4.06527       -1.91888
C          3.68851        2.15442        0.25299
C          2.97821        3.33063        0.55889
C          2.70638        3.69797        1.88138
C          3.14270        2.90298        2.93949
C          3.90502        1.76930        2.65913
C          4.17700        1.40182        1.33624
N          2.84591        3.25926        4.26162
N          1.85201        2.64509        4.69650
N          0.94408        2.08385        5.10199
H          0.94729       -0.89878       -0.77344
H          0.18984       -0.22052        0.67892
H          1.92379       -0.06835        0.44225
H         -0.33895        1.28304       -1.08620
H          0.84486        2.10275       -0.12671
H          3.03506        2.04482       -3.06807
H          4.43475       -0.01094       -2.43212
H          5.30386        0.03131       -0.90213
H          3.59784       -0.43192       -0.94700
H          6.03451        2.38850       -1.13847
H          5.40433        2.17246       -2.76435
H          4.90961        4.56741       -0.94933
H          5.81210        4.49252       -2.45581
H          4.05631        4.30589       -2.48907
H          2.59758        3.96435       -0.24120
H          2.13836        4.60309        2.08107
H          4.28658        1.15755        3.47320
H          4.76730        0.50226        1.18213

--Link1--
%chk=JID_8239.chk
%mem=8GB
%nprocshared=4
# B3LYP/6-311++G(d,p) empiricaldispersion=gd3bj scf=xqc pop=npa geom=check

CID_149687781_JID_8239_Energie_neutraal

0 1

--Link1--
%chk=JID_8239.chk
%mem=8GB
%nprocshared=4
# B3LYP/6-311++G(d,p) empiricaldispersion=gd3bj scf=xqc pop=npa geom=check

CID_149687781_JID_8239_Energie_kation

1 2

--Link1--
%chk=JID_8239.chk
%mem=8GB
%nprocshared=4
# B3LYP/6-311++G(d,p) empiricaldispersion=gd3bj scf=xqc pop=npa geom=check

CID_149687781_JID_8239_Energie_anion

-1 2
