%chk=JID_6253.chk
%mem=8GB
%nprocshared=4
# opt freq B3LYP/6-31G(d) empiricaldispersion=gd3bj scf=xqc

CID_13185872_JID_6253_neutraal

0 1
C          2.49200        0.00400       -0.01400
C          0.99586       -0.05062       -0.04937
C          0.33063       -1.27812       -0.05913
C         -1.06582       -1.33292       -0.15929
C         -1.83570       -0.17049       -0.24062
C         -1.15033        1.05356       -0.25415
C          0.24345        1.11863       -0.15601
N         -3.20571       -0.15089       -0.46347
C         -4.08032       -1.31270       -0.37771
C         -4.61408       -1.41141        1.05616
C         -5.25796       -1.17061       -1.37120
C         -4.96374       -1.33493       -2.90229
C         -3.68028       -2.12639       -3.21707
C         -6.14328       -2.14207       -3.50676
N         -4.99786       -0.06331       -3.66203
C         -4.04509        0.95383       -3.24635
H          2.89792       -0.81887        0.58383
H          2.89387       -0.06393       -1.02964
H          2.83985        0.93732        0.44120
H          0.89291       -2.20740       -0.00578
H         -1.52435       -2.31517       -0.18247
H         -1.70426        1.98270       -0.36411
H          0.73210        2.08953       -0.18155
H         -3.64909        0.71592       -0.17121
H         -3.56017       -2.24741       -0.60024
H         -5.18342       -0.51674        1.33260
H         -5.27057       -2.28055        1.16949
H         -3.79316       -1.51643        1.77387
H         -5.99585       -1.93423       -1.08581
H         -5.77468       -0.21604       -1.19776
H         -3.71190       -3.12292       -2.76176
H         -3.55843       -2.27318       -4.29725
H         -2.77728       -1.62389       -2.86041
H         -7.10161       -1.63506       -3.34034
H         -6.02620       -2.28679       -4.58807
H         -6.21116       -3.13889       -3.05481
H         -4.83476       -0.26523       -4.64898
H         -3.01357        0.59289       -3.23822
H         -4.08553        1.78535       -3.95838
H         -4.30845        1.37621       -2.27443

--Link1--
%chk=JID_6253.chk
%mem=8GB
%nprocshared=4
# B3LYP/6-311++G(d,p) empiricaldispersion=gd3bj scf=xqc pop=npa geom=check

CID_13185872_JID_6253_Energie_neutraal

0 1

--Link1--
%chk=JID_6253.chk
%mem=8GB
%nprocshared=4
# B3LYP/6-311++G(d,p) empiricaldispersion=gd3bj scf=xqc pop=npa geom=check

CID_13185872_JID_6253_Energie_kation

1 2

--Link1--
%chk=JID_6253.chk
%mem=8GB
%nprocshared=4
# B3LYP/6-311++G(d,p) empiricaldispersion=gd3bj scf=xqc pop=npa geom=check

CID_13185872_JID_6253_Energie_anion

-1 2
