%chk=JID_9126.chk
%mem=8GB
%nprocshared=4
# opt freq B3LYP/6-31G(d) empiricaldispersion=gd3bj scf=xqc

CID_62357453_JID_9126_neutraal

0 1
C         -0.72000        1.26100        0.22400
C         -1.54782        0.03152       -0.15766
C         -0.87147       -1.28755        0.26332
C          0.58282       -1.31890       -0.25702
N          1.31511       -0.11273        0.13966
C          0.70494        1.13572       -0.30838
C          2.22832       -0.06006        1.20360
O          2.44277        0.99549        1.79925
C          2.93313       -1.28503        1.55144
C          3.59131       -2.18340        0.72902
C          4.18927       -3.25279        1.46207
C          3.97784       -3.11303        2.81703
S          3.08551       -1.72116        3.20383
N          4.44041       -4.00157        3.85205
O          4.13514       -3.75104        5.02458
O          5.11460       -4.97149        3.47825
C         -0.90869       -1.53915        1.78839
C         -2.30615       -1.65574        2.38997
O         -3.05085       -2.67505        1.74054
H         -1.18912        2.16309       -0.18413
H         -0.70311        1.37227        1.31439
H         -2.55519        0.11505        0.26175
H         -1.67412        0.02357       -1.24853
H         -1.40655       -2.11230       -0.22472
H          1.06971       -2.23219        0.08840
H          0.58405       -1.34740       -1.35355
H          0.70001        1.12249       -1.40496
H          1.30086        2.00102       -0.00075
H          3.64676       -2.07268       -0.34831
H          4.74900       -4.06787        1.01620
H         -0.38187       -2.48255        1.98343
H         -0.36408       -0.75675        2.32750
H         -2.22550       -1.92673        3.44765
H         -2.86035       -0.71386        2.33713
H         -3.43461       -2.29106        0.93419

--Link1--
%chk=JID_9126.chk
%mem=8GB
%nprocshared=4
# B3LYP/6-311++G(d,p) empiricaldispersion=gd3bj scf=xqc pop=npa geom=check

CID_62357453_JID_9126_Energie_neutraal

0 1

--Link1--
%chk=JID_9126.chk
%mem=8GB
%nprocshared=4
# B3LYP/6-311++G(d,p) empiricaldispersion=gd3bj scf=xqc pop=npa geom=check

CID_62357453_JID_9126_Energie_kation

1 2

--Link1--
%chk=JID_9126.chk
%mem=8GB
%nprocshared=4
# B3LYP/6-311++G(d,p) empiricaldispersion=gd3bj scf=xqc pop=npa geom=check

CID_62357453_JID_9126_Energie_anion

-1 2
