%chk=JID_10517.chk
%mem=8GB
%nprocshared=4
# opt freq B3LYP/6-31G(d) empiricaldispersion=gd3bj scf=xqc

CID_105718691_JID_10517_neutraal

0 1
C          0.94128        0.01791       -0.07894
C          1.58047        0.23467        1.28338
C          3.06399        0.24570        1.20525
C          4.03508        1.18470        1.50856
C          5.28219        0.51796        1.32336
C          4.98916       -0.74066        0.85887
O          3.64690       -0.91371        0.78108
C          3.80464        2.50224        2.05079
O          3.53792        2.66041        3.24007
N          3.90452        3.61532        1.25282
C          3.84126        3.81408       -0.22595
C          4.22918        5.29859       -0.50331
C          5.71818        5.62360       -0.35644
C          6.48300        5.50043       -1.67094
C          6.65385        4.07548       -2.18104
C          5.35230        3.28872       -2.32413
C          4.77624        2.83214       -0.97615
C          2.33727        3.67791       -0.67055
S          1.02669        4.15468        0.27095
N          2.05782        3.31245       -1.95629
H          1.26795        0.77184       -0.80061
H         -0.14909        0.06986        0.00137
H          1.20175       -0.96499       -0.48649
H          1.21829        1.17482        1.71132
H          1.26262       -0.56322        1.96464
H          6.26931        0.91438        1.51578
H          5.58817       -1.59492        0.57578
H          3.57577        4.40825        1.79342
H          3.87689        5.61109       -1.49530
H          3.68548        5.94411        0.20126
H          6.18820        5.01842        0.42673
H          5.80225        6.66835       -0.03052
H          7.48042        5.93731       -1.53705
H          5.98754        6.10466       -2.44126
H          7.34771        3.53266       -1.52733
H          7.13925        4.12435       -3.16392
H          5.58558        2.38502       -2.90232
H          4.62647        3.85224       -2.91820
H          5.63032        2.58320       -0.33695
H          4.23889        1.89252       -1.15417
H          2.72757        2.88940       -2.58473
H          1.08176        3.23444       -2.22389

--Link1--
%chk=JID_10517.chk
%mem=8GB
%nprocshared=4
# B3LYP/6-311++G(d,p) empiricaldispersion=gd3bj scf=xqc pop=npa geom=check

CID_105718691_JID_10517_Energie_neutraal

0 1

--Link1--
%chk=JID_10517.chk
%mem=8GB
%nprocshared=4
# B3LYP/6-311++G(d,p) empiricaldispersion=gd3bj scf=xqc pop=npa geom=check

CID_105718691_JID_10517_Energie_kation

1 2

--Link1--
%chk=JID_10517.chk
%mem=8GB
%nprocshared=4
# B3LYP/6-311++G(d,p) empiricaldispersion=gd3bj scf=xqc pop=npa geom=check

CID_105718691_JID_10517_Energie_anion

-1 2
