%chk=JID_3794.chk
%mem=8GB
%nprocshared=4
# opt freq B3LYP/6-31G(d) empiricaldispersion=gd3bj scf=xqc

CID_151492091_JID_3794_neutraal

0 1
C          0.92724       -0.03579        0.05852
C          0.69832       -0.15029        1.55754
C          1.04345        1.12655        2.32761
C          0.25338        2.37833        1.92606
C         -1.27143        2.26602        2.02998
C         -1.75412        2.00545        3.43006
C         -2.45878        2.89078        4.15291
C         -2.94786        2.63911        5.55089
C         -2.31821        3.63699        6.51761
O         -2.53497        4.84342        6.42410
N         -1.51435        3.04814        7.46144
N         -0.86944        3.88567        8.11182
N         -0.25616        4.62193        8.73004
H          0.24200        0.68432       -0.39813
H          0.75794       -1.00467       -0.42222
H          1.95367        0.27552       -0.15959
H         -0.33955       -0.44382        1.74839
H          1.32433       -0.96404        1.94347
H          0.90697        0.93626        3.39889
H          2.11184        1.33990        2.19513
H          0.59323        3.21274        2.55356
H          0.51293        2.65382        0.89680
H         -1.70926        3.19773        1.64966
H         -1.64303        1.47091        1.37423
H         -1.51703        1.03035        3.85141
H         -2.70323        3.86390        3.72757
H         -4.03522        2.76389        5.59554
H         -2.72619        1.61634        5.87655

--Link1--
%chk=JID_3794.chk
%mem=8GB
%nprocshared=4
# B3LYP/6-311++G(d,p) empiricaldispersion=gd3bj scf=xqc pop=npa geom=check

CID_151492091_JID_3794_Energie_neutraal

0 1

--Link1--
%chk=JID_3794.chk
%mem=8GB
%nprocshared=4
# B3LYP/6-311++G(d,p) empiricaldispersion=gd3bj scf=xqc pop=npa geom=check

CID_151492091_JID_3794_Energie_kation

1 2

--Link1--
%chk=JID_3794.chk
%mem=8GB
%nprocshared=4
# B3LYP/6-311++G(d,p) empiricaldispersion=gd3bj scf=xqc pop=npa geom=check

CID_151492091_JID_3794_Energie_anion

-1 2
