%chk=JID_1399.chk
%mem=8GB
%nprocshared=4
# opt freq B3LYP/6-31G(d) empiricaldispersion=gd3bj scf=xqc

CID_143132070_JID_1399_neutraal

0 1
C          1.05806        0.02728        0.07672
C          1.03804        0.74384       -1.25428
C         -0.22755       -3.55942       -0.99482
C         -0.54523       -3.58913        0.48320
C         -2.78900        1.73190        0.30877
C         -1.91631        2.21772        1.39455
C         -1.85268        1.96819        2.74814
C         -0.77729        2.74856        3.25704
C         -0.26436        3.42001        2.16674
O         -0.94635        3.10314        1.03763
C         -0.31319        2.83062        4.66098
H          1.69141       -0.86320        0.02397
H          0.04885       -0.28433        0.36122
H          1.44991        0.68231        0.86045
H          2.04852        1.05001       -1.54083
H          0.64105        0.09012       -2.03655
H          0.41008        1.63792       -1.20154
H         -0.27277       -2.53583       -1.37801
H         -0.94455       -4.16771       -1.55415
H          0.77647       -3.95259       -1.18008
H          0.17876       -2.99152        1.04485
H         -1.54441       -3.18440        0.66975
H         -0.51219       -4.61473        0.86272
H         -2.21091        1.15075       -0.41591
H         -3.58510        1.09208        0.70168
H         -3.25496        2.57239       -0.21462
H         -2.50258        1.30514        3.30229
H          0.54510        4.12488        2.03646
H          0.74216        3.11741        4.71174
H         -0.89823        3.57469        5.21076
H         -0.42389        1.86510        5.16492

--Link1--
%chk=JID_1399.chk
%mem=8GB
%nprocshared=4
# B3LYP/6-311++G(d,p) empiricaldispersion=gd3bj scf=xqc pop=npa geom=check

CID_143132070_JID_1399_Energie_neutraal

0 1

--Link1--
%chk=JID_1399.chk
%mem=8GB
%nprocshared=4
# B3LYP/6-311++G(d,p) empiricaldispersion=gd3bj scf=xqc pop=npa geom=check

CID_143132070_JID_1399_Energie_kation

1 2

--Link1--
%chk=JID_1399.chk
%mem=8GB
%nprocshared=4
# B3LYP/6-311++G(d,p) empiricaldispersion=gd3bj scf=xqc pop=npa geom=check

CID_143132070_JID_1399_Energie_anion

-1 2
