%chk=JID_10433.chk
%mem=8GB
%nprocshared=4
# opt freq B3LYP/6-31G(d) empiricaldispersion=gd3bj scf=xqc

CID_104043847_JID_10433_neutraal

0 1
C          1.01501        0.09768       -0.01529
C         -0.32523       -0.34803       -0.59118
C         -0.18108       -1.06788       -1.94130
C          0.02381       -2.57358       -1.79154
C         -1.01607       -3.18597       -0.83920
C         -1.84240       -2.13060       -0.10125
O         -0.97943       -1.12520        0.41519
C         -2.59388       -2.75264        1.06958
O          1.36101       -2.78249       -1.32724
C          1.82462       -4.13216       -1.45325
C          2.97917       -4.37369       -0.45090
C          2.48412       -4.27980        0.98515
C          2.79773       -3.15407        1.75961
C          2.29248       -3.01748        3.05452
C          1.45937       -3.99403        3.59959
C          1.15811       -5.12944        2.84779
C          1.66738       -5.27035        1.55112
O          1.01803       -3.73046        4.86720
C         -0.06209       -4.52559        5.33848
N          3.63515       -5.66867       -0.69250
H          1.55502        0.74238       -0.71521
H          1.64841       -0.75677        0.23643
H          0.86107        0.65221        0.91712
H         -0.93226        0.55208       -0.74798
H         -1.10518       -0.90963       -2.51335
H          0.62767       -0.61575       -2.52762
H         -0.06185       -3.03701       -2.78269
H         -0.52170       -3.82822       -0.10298
H         -1.70032       -3.82700       -1.40878
H         -2.57501       -1.66675       -0.77375
H         -3.16976       -1.98847        1.60243
H         -3.27945       -3.53541        0.73111
H         -1.89911       -3.18478        1.79894
H          1.01591       -4.85540       -1.29798
H          2.18759       -4.25625       -2.48053
H          3.73384       -3.59120       -0.60419
H          3.41424       -2.35750        1.35012
H          2.53134       -2.12881        3.63338
H          0.53075       -5.92242        3.23872
H          1.41344       -6.15755        0.97433
H         -0.91454       -4.48988        4.65134
H          0.25984       -5.55653        5.51624
H         -0.38989       -4.10942        6.29604
H          4.11586       -5.62977       -1.58949
H          4.36405       -5.78570        0.01187

--Link1--
%chk=JID_10433.chk
%mem=8GB
%nprocshared=4
# B3LYP/6-311++G(d,p) empiricaldispersion=gd3bj scf=xqc pop=npa geom=check

CID_104043847_JID_10433_Energie_neutraal

0 1

--Link1--
%chk=JID_10433.chk
%mem=8GB
%nprocshared=4
# B3LYP/6-311++G(d,p) empiricaldispersion=gd3bj scf=xqc pop=npa geom=check

CID_104043847_JID_10433_Energie_kation

1 2

--Link1--
%chk=JID_10433.chk
%mem=8GB
%nprocshared=4
# B3LYP/6-311++G(d,p) empiricaldispersion=gd3bj scf=xqc pop=npa geom=check

CID_104043847_JID_10433_Energie_anion

-1 2
