%chk=JID_6468.chk
%mem=8GB
%nprocshared=4
# opt freq B3LYP/6-31G(d) empiricaldispersion=gd3bj scf=xqc

CID_61588665_JID_6468_neutraal

0 1
C          1.05663        0.07235       -0.03947
C          0.78327       -1.06929        0.94006
C          1.66420       -0.89187        2.18217
C         -0.70034       -1.15328        1.37088
N         -1.68323       -1.43938        0.29068
C         -3.06301       -1.36431        0.87132
C         -3.87309       -0.07692        0.47188
C         -5.13094        0.06547        1.36017
C         -6.18974       -0.99958        1.07174
C         -6.58669       -1.00794       -0.40068
C         -5.37640       -1.14801       -1.31906
C         -4.30324       -0.09846       -1.01507
N         -3.03223        1.11901        0.69502
C         -1.44287       -2.77834       -0.30459
C         -2.07628       -3.14717       -1.62057
C         -0.60360       -2.90128       -1.54851
H          0.81972        1.04297        0.40985
H          0.45859       -0.02716       -0.94948
H          2.11121        0.08577       -0.33470
H          1.08032       -2.01223        0.46730
H          1.42852        0.04027        2.70731
H          1.52031       -1.72108        2.88300
H          2.72406       -0.86786        1.90775
H         -0.79021       -1.92435        2.14935
H         -0.95774       -0.20057        1.85078
H         -3.63665       -2.24947        0.57202
H         -3.01563       -1.43326        1.96761
H         -4.85818        0.02350        2.42245
H         -5.58918        1.05172        1.20021
H         -7.07693       -0.80706        1.68630
H         -5.81919       -1.98942        1.36176
H         -7.11568       -0.07659       -0.63811
H         -7.28966       -1.82758       -0.58862
H         -5.69926       -1.04530       -2.36169
H         -4.96201       -2.15694       -1.22268
H         -4.71620        0.88210       -1.29206
H         -3.43833       -0.25516       -1.66959
H         -2.15238        0.95493        0.19739
H         -3.45849        1.93090        0.25245
H         -1.36049       -3.58964        0.41880
H         -2.41731       -4.16788       -1.74790
H         -2.67085       -2.41405       -2.14960
H         -0.22853       -2.00065       -2.01936
H          0.06254       -3.75211       -1.62597

--Link1--
%chk=JID_6468.chk
%mem=8GB
%nprocshared=4
# B3LYP/6-311++G(d,p) empiricaldispersion=gd3bj scf=xqc pop=npa geom=check

CID_61588665_JID_6468_Energie_neutraal

0 1

--Link1--
%chk=JID_6468.chk
%mem=8GB
%nprocshared=4
# B3LYP/6-311++G(d,p) empiricaldispersion=gd3bj scf=xqc pop=npa geom=check

CID_61588665_JID_6468_Energie_kation

1 2

--Link1--
%chk=JID_6468.chk
%mem=8GB
%nprocshared=4
# B3LYP/6-311++G(d,p) empiricaldispersion=gd3bj scf=xqc pop=npa geom=check

CID_61588665_JID_6468_Energie_anion

-1 2
