%chk=JID_9747.chk
%mem=8GB
%nprocshared=4
# opt freq B3LYP/6-31G(d) empiricaldispersion=gd3bj scf=xqc

CID_80603705_JID_9747_neutraal

0 1
C          1.04951       -0.05029       -0.07085
C          1.72968       -1.35565       -0.45408
C          1.68542       -2.36020        0.64027
C          1.98306       -2.31853        1.98568
C          1.75641       -3.62124        2.48913
C          1.32966       -4.38414        1.42166
O          1.29961       -3.62017        0.28853
C          0.97595       -5.82937        1.26973
C         -0.55767       -6.18689        1.37773
C         -1.07755       -5.68529        2.76416
C         -2.45881       -6.13553        3.25054
C         -3.66719       -5.79502        2.38237
C         -3.77098       -4.32292        1.98678
C         -3.34906       -4.01938        0.54922
C         -1.85752       -4.17027        0.24590
C         -1.37226       -5.62353        0.16864
C         -0.67660       -7.75527        1.35757
N         -0.20564       -8.42491        0.14553
O          1.53406       -6.26044        0.01950
H          0.00227       -0.21601        0.20455
H          1.07371        0.65005       -0.91182
H          1.55008        0.42665        0.77857
H          1.24306       -1.75959       -1.34972
H          2.77498       -1.15949       -0.71827
H          2.32937       -1.45389        2.53527
H          1.89632       -3.96737        3.50354
H          1.51864       -6.38650        2.04435
H         -0.36483       -6.02419        3.53043
H         -1.03735       -4.59278        2.81827
H         -2.61717       -5.67767        4.23683
H         -2.45349       -7.21543        3.43964
H         -4.55729       -6.04550        2.97563
H         -3.71926       -6.45075        1.50846
H         -3.22851       -3.68053        2.68974
H         -4.82669       -4.03235        2.07156
H         -3.62447       -2.97744        0.33975
H         -3.93609       -4.63031       -0.14781
H         -1.27460       -3.56125        0.93951
H         -1.69423       -3.72254       -0.74393
H         -0.75591       -5.70854       -0.73584
H         -2.22992       -6.27271       -0.04276
H         -0.12016       -8.17120        2.20641
H         -1.71954       -8.05883        1.49585
H         -0.80058       -8.16798       -0.64086
H          0.71311       -8.02985       -0.09778
H          1.56988       -5.46518       -0.54716

--Link1--
%chk=JID_9747.chk
%mem=8GB
%nprocshared=4
# B3LYP/6-311++G(d,p) empiricaldispersion=gd3bj scf=xqc pop=npa geom=check

CID_80603705_JID_9747_Energie_neutraal

0 1

--Link1--
%chk=JID_9747.chk
%mem=8GB
%nprocshared=4
# B3LYP/6-311++G(d,p) empiricaldispersion=gd3bj scf=xqc pop=npa geom=check

CID_80603705_JID_9747_Energie_kation

1 2

--Link1--
%chk=JID_9747.chk
%mem=8GB
%nprocshared=4
# B3LYP/6-311++G(d,p) empiricaldispersion=gd3bj scf=xqc pop=npa geom=check

CID_80603705_JID_9747_Energie_anion

-1 2
