%chk=JID_10417.chk
%mem=8GB
%nprocshared=4
# opt freq B3LYP/6-31G(d) empiricaldispersion=gd3bj scf=xqc

CID_63875418_JID_10417_neutraal

0 1
C          0.95007        0.04890       -0.07152
C          0.84546       -1.46588       -0.20863
C          1.32843       -2.14469        1.08497
O          0.54687       -2.49335        1.97387
N          2.66400       -2.32428        1.30029
C          3.78475       -1.97106        0.46285
N         -0.54049       -1.88066       -0.44208
C         -1.20186       -1.91849       -1.62464
O         -2.38493       -1.58429       -1.64519
N         -0.51494       -2.32441       -2.74966
C         -1.16425       -2.12763       -4.04709
C         -1.84389       -3.40819       -4.53187
C         -0.82520       -4.55344       -4.55919
C         -0.17690       -4.73037       -3.18715
C          0.45402       -3.42355       -2.71702
O         -1.31732       -5.77301       -5.11574
C         -2.44746       -6.38273       -4.51761
C         -2.28529       -7.13383       -3.20024
O         -3.13676       -7.24568       -2.33234
O         -1.09360       -7.74917       -3.06143
H          0.35349        0.41140        0.77344
H          0.58446        0.54881       -0.97479
H          1.98503        0.36294        0.09690
H          1.46215       -1.76787       -1.05241
H          2.85952       -2.74360        2.20284
H          4.27704       -1.10168        0.90502
H          4.48068       -2.81373        0.45769
H          3.48618       -1.74156       -0.55946
H         -1.16622       -1.68375        0.33184
H         -0.38732       -1.81859       -4.75628
H         -1.89415       -1.31221       -3.99349
H         -2.27624       -3.26251       -5.52812
H         -2.67600       -3.65102       -3.86093
H         -0.02688       -4.25368       -5.25156
H         -0.92586       -5.04018       -2.45047
H          0.57960       -5.52226       -3.22349
H          0.83703       -3.60177       -1.71086
H          1.29422       -3.14217       -3.36162
H         -3.26075       -5.65994       -4.40950
H         -2.80009       -7.13506       -5.23301
H         -1.15591       -8.18871       -2.18801

--Link1--
%chk=JID_10417.chk
%mem=8GB
%nprocshared=4
# B3LYP/6-311++G(d,p) empiricaldispersion=gd3bj scf=xqc pop=npa geom=check

CID_63875418_JID_10417_Energie_neutraal

0 1

--Link1--
%chk=JID_10417.chk
%mem=8GB
%nprocshared=4
# B3LYP/6-311++G(d,p) empiricaldispersion=gd3bj scf=xqc pop=npa geom=check

CID_63875418_JID_10417_Energie_kation

1 2

--Link1--
%chk=JID_10417.chk
%mem=8GB
%nprocshared=4
# B3LYP/6-311++G(d,p) empiricaldispersion=gd3bj scf=xqc pop=npa geom=check

CID_63875418_JID_10417_Energie_anion

-1 2
