%chk=JID_6759.chk
%mem=8GB
%nprocshared=4
# opt freq B3LYP/6-31G(d) empiricaldispersion=gd3bj scf=xqc

CID_54595777_JID_6759_neutraal

0 1
C          0.99100        0.73400       -0.00100
C          1.34838       -0.54605       -0.36847
N          0.24519       -1.07311       -0.98808
N         -0.79975       -0.22604       -1.02771
C         -0.34158        0.87309       -0.42702
C          2.61330       -1.30260       -0.21831
N          2.35596       -2.42398        0.68811
S          3.66966       -3.39026        1.08378
O          4.84990       -2.55564        1.05446
O          3.28796       -4.10765        2.27843
C          3.75509       -4.54443       -0.28386
C          2.78207       -5.71742       -0.20467
C          1.31265       -5.36540       -0.41461
C          1.04797       -4.74620       -1.75797
O          0.61508       -3.62231       -1.95569
O          1.34712       -5.56169       -2.78339
H          1.60413        1.46557        0.50620
H          0.14240       -2.00441       -1.39314
H         -0.99681        1.72889       -0.32643
H          2.95597       -1.66516       -1.19225
H          3.37570       -0.63956        0.20397
H          1.84373       -2.16681        1.53548
H          3.66778       -3.98213       -1.21748
H          4.77682       -4.94212       -0.24995
H          3.08060       -6.45043       -0.96497
H          2.88747       -6.22339        0.76213
H          0.69609       -6.26885       -0.33822
H          0.95381       -4.68535        0.36362
H          1.09907       -5.06302       -3.59073

--Link1--
%chk=JID_6759.chk
%mem=8GB
%nprocshared=4
# B3LYP/6-311++G(d,p) empiricaldispersion=gd3bj scf=xqc pop=npa geom=check

CID_54595777_JID_6759_Energie_neutraal

0 1

--Link1--
%chk=JID_6759.chk
%mem=8GB
%nprocshared=4
# B3LYP/6-311++G(d,p) empiricaldispersion=gd3bj scf=xqc pop=npa geom=check

CID_54595777_JID_6759_Energie_kation

1 2

--Link1--
%chk=JID_6759.chk
%mem=8GB
%nprocshared=4
# B3LYP/6-311++G(d,p) empiricaldispersion=gd3bj scf=xqc pop=npa geom=check

CID_54595777_JID_6759_Energie_anion

-1 2
