%chk=JID_3274.chk
%mem=8GB
%nprocshared=4
# opt freq B3LYP/6-31G(d) empiricaldispersion=gd3bj scf=xqc

CID_69591648_JID_3274_neutraal

0 1
C          2.44200       -0.09800       -0.00700
C          1.10872       -0.44258       -0.60084
N          0.18042        0.54387       -0.65773
C         -1.02559        0.23764       -1.19695
C         -1.33313       -1.01974       -1.69293
C         -0.37280       -2.02206       -1.62086
C          0.86844       -1.73195       -1.06660
N         -1.97129        1.25880       -1.30384
C         -2.07612        2.14863       -0.37248
N         -1.35035        2.26144        0.79103
S         -3.36880        3.48042       -0.68650
O         -4.65254        2.90013       -0.17005
O         -2.86460        4.42734        0.51748
H          3.23612       -0.25447       -0.74361
H          2.46908        0.95072        0.30611
H          2.63698       -0.72100        0.87139
H         -2.30819       -1.20813       -2.12799
H         -0.59031       -3.01672       -1.99861
H          1.63392       -2.49899       -1.00489
H         -1.25255        3.22345        1.09877
H         -0.45581        1.77820        0.69654
H         -3.60816        4.41377        1.16799

--Link1--
%chk=JID_3274.chk
%mem=8GB
%nprocshared=4
# B3LYP/6-311++G(d,p) empiricaldispersion=gd3bj scf=xqc pop=npa geom=check

CID_69591648_JID_3274_Energie_neutraal

0 1

--Link1--
%chk=JID_3274.chk
%mem=8GB
%nprocshared=4
# B3LYP/6-311++G(d,p) empiricaldispersion=gd3bj scf=xqc pop=npa geom=check

CID_69591648_JID_3274_Energie_kation

1 2

--Link1--
%chk=JID_3274.chk
%mem=8GB
%nprocshared=4
# B3LYP/6-311++G(d,p) empiricaldispersion=gd3bj scf=xqc pop=npa geom=check

CID_69591648_JID_3274_Energie_anion

-1 2
