%chk=JID_9188.chk
%mem=8GB
%nprocshared=4
# opt freq B3LYP/6-31G(d) empiricaldispersion=gd3bj scf=xqc

CID_61214862_JID_9188_neutraal

0 1
C          0.93319        0.02248        0.07092
C          1.00405       -1.51990        0.18191
C          2.28083       -1.85231        0.98363
C         -0.20707       -1.95718        1.02210
C          1.07227       -2.12971       -1.27581
C          1.66777       -3.54330       -1.41450
C          0.70471       -4.66848       -1.06436
C         -0.58754       -4.60295       -1.88552
C         -1.21991       -3.20134       -1.83587
C         -0.23315       -2.06181       -2.09544
N         -1.62370       -5.54753       -1.45004
C         -1.25477       -6.96534       -1.44036
C         -0.67874       -7.51810       -0.11939
C         -1.51108       -7.17392        1.07973
N         -1.77452       -5.94481        1.48827
C         -2.54130       -6.07465        2.61364
C         -2.74570       -7.39912        2.90811
N         -2.08499       -8.09010        1.93011
C         -2.00575       -9.52654        1.83505
H          0.92968        0.49260        1.06158
H          0.02700        0.35366       -0.44589
H          1.79549        0.42117       -0.47548
H          2.31429       -1.29500        1.92740
H          2.32787       -2.91520        1.24345
H          3.18288       -1.59276        0.41852
H         -1.14612       -1.58419        0.60218
H         -0.27422       -3.04110        1.12613
H         -0.14356       -1.54815        2.03824
H          1.78668       -1.48380       -1.81017
H          1.97174       -3.67891       -2.46252
H          2.59225       -3.65235       -0.83980
H          0.49210       -4.65598        0.00786
H          1.21994       -5.61394       -1.26983
H         -0.34209       -4.81705       -2.93419
H         -1.71221       -3.04758       -0.87093
H         -2.02256       -3.13985       -2.58341
H         -0.73958       -1.10165       -1.95433
H          0.03750       -2.09788       -3.15999
H         -1.92206       -5.29667       -0.49567
H         -2.17824       -7.52086       -1.64818
H         -0.57662       -7.19858       -2.27004
H         -0.57355       -8.60340       -0.22445
H          0.33206       -7.13669        0.05230
H         -2.90210       -5.20789        3.15237
H         -3.28668       -7.88523        3.70788
H         -0.95461       -9.82064        1.89075
H         -2.55734       -9.97912        2.66321
H         -2.44721       -9.83672        0.88486

--Link1--
%chk=JID_9188.chk
%mem=8GB
%nprocshared=4
# B3LYP/6-311++G(d,p) empiricaldispersion=gd3bj scf=xqc pop=npa geom=check

CID_61214862_JID_9188_Energie_neutraal

0 1

--Link1--
%chk=JID_9188.chk
%mem=8GB
%nprocshared=4
# B3LYP/6-311++G(d,p) empiricaldispersion=gd3bj scf=xqc pop=npa geom=check

CID_61214862_JID_9188_Energie_kation

1 2

--Link1--
%chk=JID_9188.chk
%mem=8GB
%nprocshared=4
# B3LYP/6-311++G(d,p) empiricaldispersion=gd3bj scf=xqc pop=npa geom=check

CID_61214862_JID_9188_Energie_anion

-1 2
