%chk=JID_9881.chk
%mem=8GB
%nprocshared=4
# opt freq B3LYP/6-31G(d) empiricaldispersion=gd3bj scf=xqc

CID_61920139_JID_9881_neutraal

0 1
C          0.97330       -0.09305        0.02509
C          0.92084       -0.85246        1.35001
C          0.33620       -2.26785        1.12935
C          1.35811       -3.12596        1.77843
C          1.31260       -4.50183        1.95931
C          2.38867       -5.12244        2.58984
C          3.48667       -4.36504        3.01424
C          3.51472       -2.97920        2.81755
C          2.43490       -2.35323        2.20869
N          2.29664       -0.97274        1.91510
C          2.67084       -0.07669        3.04088
C          2.87828        1.39490        2.60293
C          1.55075        2.15374        2.67913
O          0.62624        1.97008        3.45534
O          1.49669        3.19487        1.81777
N          3.86041        2.07630        3.49825
C          5.07195        2.50911        2.79076
C          4.82286        3.74115        1.91796
C          6.13677        2.82893        3.84163
H          1.35347        0.92281        0.15326
H         -0.02553       -0.02083       -0.41809
H          1.62990       -0.59597       -0.69398
H          0.26740       -0.31532        2.04834
H         -0.63784       -2.36647        1.61933
H          0.23606       -2.52384        0.06925
H          0.46240       -5.08290        1.61763
H          2.38094       -6.19812        2.74513
H          4.32945       -4.85732        3.49266
H          4.38991       -2.41858        3.12618
H          1.93511       -0.16369        3.85093
H          3.62841       -0.41483        3.45393
H          3.21340        1.40670        1.55868
H          0.63184        3.61554        2.00574
H          3.42343        2.88269        3.94672
H          5.45644        1.69099        2.16919
H          4.40264        4.56799        2.50182
H          5.75868        4.09236        1.46968
H          4.13319        3.52109        1.09748
H          6.35349        1.95080        4.46027
H          7.07342        3.13399        3.36212
H          5.81944        3.64163        4.50506

--Link1--
%chk=JID_9881.chk
%mem=8GB
%nprocshared=4
# B3LYP/6-311++G(d,p) empiricaldispersion=gd3bj scf=xqc pop=npa geom=check

CID_61920139_JID_9881_Energie_neutraal

0 1

--Link1--
%chk=JID_9881.chk
%mem=8GB
%nprocshared=4
# B3LYP/6-311++G(d,p) empiricaldispersion=gd3bj scf=xqc pop=npa geom=check

CID_61920139_JID_9881_Energie_kation

1 2

--Link1--
%chk=JID_9881.chk
%mem=8GB
%nprocshared=4
# B3LYP/6-311++G(d,p) empiricaldispersion=gd3bj scf=xqc pop=npa geom=check

CID_61920139_JID_9881_Energie_anion

-1 2
