%chk=JID_9180.chk
%mem=8GB
%nprocshared=4
# opt freq B3LYP/6-31G(d) empiricaldispersion=gd3bj scf=xqc

CID_112519728_JID_9180_neutraal

0 1
C          0.95591        0.00549       -0.08959
C          1.14015       -0.40263        1.36473
N          1.43267        0.75263        2.21275
C          0.30136        1.36977        2.90882
C          0.01584        0.68195        4.23489
C          2.75430        1.18458        2.29728
O          3.66949        0.58917        1.72004
C          3.06881        2.43656        3.13038
O          2.46702        3.65646        2.70540
C          3.12264        4.21222        1.64196
C          2.95029        3.71550        0.34965
C          3.60171        4.30452       -0.74481
C          4.34389        5.48374       -0.52648
C          4.47824        5.99860        0.77647
C          3.87031        5.36247        1.85873
C          5.02606        6.24636       -1.60556
O          5.46708        7.37792       -1.50200
O          5.19439        5.55272       -2.74971
N          3.28266        3.82421       -2.03210
H          0.15029        0.73954       -0.19356
H          0.70546       -0.86779       -0.69963
H          1.86934        0.45188       -0.49525
H          0.23895       -0.90319        1.73524
H          1.96151       -1.12442        1.43717
H          0.49039        2.42729        3.09394
H         -0.57779        1.31802        2.25657
H          0.88479        0.72763        4.89895
H         -0.82689        1.16478        4.73917
H         -0.23516       -0.37339        4.08804
H          2.73233        2.24383        4.15544
H          4.16000        2.54834        3.19689
H          2.28788        2.87161        0.18305
H          5.05119        6.90808        0.94902
H          3.96612        5.77495        2.85903
H          5.67066        6.18983       -3.32427
H          3.98204        4.12122       -2.71915
H          3.12690        2.82067       -2.06046

--Link1--
%chk=JID_9180.chk
%mem=8GB
%nprocshared=4
# B3LYP/6-311++G(d,p) empiricaldispersion=gd3bj scf=xqc pop=npa geom=check

CID_112519728_JID_9180_Energie_neutraal

0 1

--Link1--
%chk=JID_9180.chk
%mem=8GB
%nprocshared=4
# B3LYP/6-311++G(d,p) empiricaldispersion=gd3bj scf=xqc pop=npa geom=check

CID_112519728_JID_9180_Energie_kation

1 2

--Link1--
%chk=JID_9180.chk
%mem=8GB
%nprocshared=4
# B3LYP/6-311++G(d,p) empiricaldispersion=gd3bj scf=xqc pop=npa geom=check

CID_112519728_JID_9180_Energie_anion

-1 2
