%chk=JID_4252.chk
%mem=8GB
%nprocshared=4
# opt freq B3LYP/6-31G(d) empiricaldispersion=gd3bj scf=xqc

CID_130142315_JID_4252_neutraal

0 1
C          0.94550        0.06136        0.05713
O          0.36440       -0.72046        1.08720
C          1.25215       -1.31249        2.00666
C          2.25184       -2.33791        1.42749
C          3.25640       -2.53259        2.58440
C          3.11241       -3.85476        3.32183
C          1.81033       -3.72139        4.11828
C          0.60178       -4.33507        3.39769
C         -0.32445       -3.18632        3.00322
C          0.44997       -1.89360        3.20254
C          1.55475       -2.21132        4.22135
C          2.78228       -1.49658        3.62166
C          2.19925       -0.37445        2.77310
O         -1.45467       -3.20498        3.87988
H          0.13390        0.49176       -0.53671
H          1.55609       -0.55217       -0.60949
H          1.53437        0.88564        0.46755
H          1.77690       -3.25857        1.07827
H          2.78329       -1.92433        0.56314
H          4.28192       -2.35922        2.24331
H          3.94955       -3.96477        4.02290
H          3.13263       -4.71985        2.65220
H          1.93453       -4.17968        5.10569
H          0.09455       -5.04701        4.05974
H          0.90835       -4.89929        2.51045
H         -0.70662       -3.29708        1.98444
H         -0.21905       -1.11350        3.59240
H          1.29210       -1.87846        5.22968
H          3.54128       -1.21370        4.35397
H          2.94588        0.11180        2.13657
H          1.67344        0.39356        3.35030
H         -1.13858       -3.05192        4.78626

--Link1--
%chk=JID_4252.chk
%mem=8GB
%nprocshared=4
# B3LYP/6-311++G(d,p) empiricaldispersion=gd3bj scf=xqc pop=npa geom=check

CID_130142315_JID_4252_Energie_neutraal

0 1

--Link1--
%chk=JID_4252.chk
%mem=8GB
%nprocshared=4
# B3LYP/6-311++G(d,p) empiricaldispersion=gd3bj scf=xqc pop=npa geom=check

CID_130142315_JID_4252_Energie_kation

1 2

--Link1--
%chk=JID_4252.chk
%mem=8GB
%nprocshared=4
# B3LYP/6-311++G(d,p) empiricaldispersion=gd3bj scf=xqc pop=npa geom=check

CID_130142315_JID_4252_Energie_anion

-1 2
