%chk=JID_9676.chk
%mem=8GB
%nprocshared=4
# opt freq B3LYP/6-31G(d) empiricaldispersion=gd3bj scf=xqc

CID_62860891_JID_9676_neutraal

0 1
C         -2.37200       -0.01600        0.01400
C         -0.90795        0.17748       -0.23546
N         -0.21545       -0.86463       -0.72733
C          1.09636       -0.66120       -0.94403
C          1.73432        0.53051       -0.69113
C          0.95049        1.54352       -0.17154
N         -0.37106        1.37407        0.07062
C          1.54712        2.89852        0.16102
N          2.45272        2.83130        1.29803
C          3.80385        2.72237        1.03347
N          4.32479        3.34294       -0.01445
C          5.64128        3.21295       -0.15454
N          6.43529        2.49850        0.62245
C          5.80865        1.91993        1.63251
N          4.50309        1.99121        1.88671
O          6.62671        1.17194        2.45278
C          5.95481        0.63388        3.58308
O          6.27661        3.82755       -1.21292
C          5.47618        4.81961       -1.84227
H         -2.82089       -0.60345       -0.79265
H         -2.51795       -0.54391        0.96077
H         -2.88810        0.94757        0.06504
H          1.63800       -1.51438       -1.34252
H          2.79125        0.65386       -0.88635
H          1.99528        3.33196       -0.74134
H          0.72765        3.57364        0.43625
H          2.19230        2.15694        2.00882
H          5.53307        1.42610        4.21148
H          5.18261       -0.08218        3.28137
H          6.69272        0.09237        4.18306
H          4.62174        4.36883       -2.35872
H          5.14490        5.58122       -1.12716
H          6.09346        5.31897       -2.59546

--Link1--
%chk=JID_9676.chk
%mem=8GB
%nprocshared=4
# B3LYP/6-311++G(d,p) empiricaldispersion=gd3bj scf=xqc pop=npa geom=check

CID_62860891_JID_9676_Energie_neutraal

0 1

--Link1--
%chk=JID_9676.chk
%mem=8GB
%nprocshared=4
# B3LYP/6-311++G(d,p) empiricaldispersion=gd3bj scf=xqc pop=npa geom=check

CID_62860891_JID_9676_Energie_kation

1 2

--Link1--
%chk=JID_9676.chk
%mem=8GB
%nprocshared=4
# B3LYP/6-311++G(d,p) empiricaldispersion=gd3bj scf=xqc pop=npa geom=check

CID_62860891_JID_9676_Energie_anion

-1 2
