%chk=JID_2456.chk
%mem=8GB
%nprocshared=4
# opt freq B3LYP/6-31G(d) empiricaldispersion=gd3bj scf=xqc

CID_83162335_JID_2456_neutraal

0 1
C          1.00296        0.06390        0.07686
C          0.78824       -1.42052       -0.16030
O          1.66185       -2.24427        0.59944
C          3.06544       -2.11514        0.35751
C          3.53487       -2.64715       -1.02341
C          3.62076       -1.56675       -2.12810
C          4.59717       -0.39679       -1.92743
C          6.07120       -0.64331       -2.27395
C          6.36032       -1.16552       -3.69389
C          5.80096       -0.24650       -4.78066
C          7.87104       -1.33011       -3.88445
N          4.80828       -3.36982       -0.90100
H          0.20940        0.64655       -0.40038
H          1.95879        0.40315       -0.33138
H          1.01009        0.28698        1.14858
H         -0.22849       -1.67608        0.15815
H          0.84599       -1.67671       -1.22104
H          3.39780       -1.09498        0.56437
H          3.52536       -2.73040        1.14109
H          2.79538       -3.38414       -1.36124
H          3.81714       -2.05707       -3.08862
H          2.62639       -1.12563       -2.25000
H          4.24359        0.43753       -2.54700
H          4.54264       -0.02603       -0.89900
H          6.60286        0.30805       -2.13438
H          6.51211       -1.32812       -1.54294
H          5.90942       -2.15719       -3.81369
H          6.18020        0.77506       -4.67038
H          6.08292       -0.60566       -5.77631
H          4.70782       -0.20993       -4.74820
H          8.28498       -2.01526       -3.13710
H          8.09575       -1.74162       -4.87421
H          8.39095       -0.37050       -3.79086
H          5.17148       -3.59986       -1.82460
H          5.50550       -2.79029       -0.44008

--Link1--
%chk=JID_2456.chk
%mem=8GB
%nprocshared=4
# B3LYP/6-311++G(d,p) empiricaldispersion=gd3bj scf=xqc pop=npa geom=check

CID_83162335_JID_2456_Energie_neutraal

0 1

--Link1--
%chk=JID_2456.chk
%mem=8GB
%nprocshared=4
# B3LYP/6-311++G(d,p) empiricaldispersion=gd3bj scf=xqc pop=npa geom=check

CID_83162335_JID_2456_Energie_kation

1 2

--Link1--
%chk=JID_2456.chk
%mem=8GB
%nprocshared=4
# B3LYP/6-311++G(d,p) empiricaldispersion=gd3bj scf=xqc pop=npa geom=check

CID_83162335_JID_2456_Energie_anion

-1 2
