%chk=JID_3442.chk
%mem=8GB
%nprocshared=4
# opt freq B3LYP/6-31G(d) empiricaldispersion=gd3bj scf=xqc

CID_82655601_JID_3442_neutraal

0 1
C          1.06904       -0.06901       -0.02171
N          1.08456        1.38479        0.13264
C          1.39042        2.02801       -1.15645
C          2.71238        2.57718       -0.57690
C          2.35536        1.82617        0.72188
C          2.76633        4.08987       -0.44416
O          3.00059        4.66790       -1.72931
C          4.20927        4.17052       -2.30695
O          4.13186        2.75534       -2.50519
C          3.96954        2.07205       -1.26393
C          4.40786        4.81511       -3.67605
C          4.45977        6.34068       -3.65603
N          5.59725        6.85957       -2.89824
H          0.18957       -0.37426       -0.59912
H          0.99250       -0.54781        0.96060
H          1.96007       -0.46497       -0.52393
H          0.65578        2.79256       -1.43614
H          1.49963        1.35850       -2.01901
H          3.05706        1.03342        1.01082
H          2.21890        2.46900        1.59979
H          3.56260        4.40597        0.24093
H          1.82569        4.49866       -0.05955
H          5.06221        4.40367       -1.65639
H          4.86031        2.23291       -0.64431
H          3.91306        0.99946       -1.47813
H          5.31624        4.41104       -4.14130
H          3.57973        4.51417       -4.33180
H          4.54775        6.69557       -4.68918
H          3.53030        6.75951       -3.25529
H          5.67140        7.86338       -3.06765
H          5.40191        6.77305       -1.90099

--Link1--
%chk=JID_3442.chk
%mem=8GB
%nprocshared=4
# B3LYP/6-311++G(d,p) empiricaldispersion=gd3bj scf=xqc pop=npa geom=check

CID_82655601_JID_3442_Energie_neutraal

0 1

--Link1--
%chk=JID_3442.chk
%mem=8GB
%nprocshared=4
# B3LYP/6-311++G(d,p) empiricaldispersion=gd3bj scf=xqc pop=npa geom=check

CID_82655601_JID_3442_Energie_kation

1 2

--Link1--
%chk=JID_3442.chk
%mem=8GB
%nprocshared=4
# B3LYP/6-311++G(d,p) empiricaldispersion=gd3bj scf=xqc pop=npa geom=check

CID_82655601_JID_3442_Energie_anion

-1 2
