%chk=JID_8565.chk
%mem=8GB
%nprocshared=4
# opt freq B3LYP/6-31G(d) empiricaldispersion=gd3bj scf=xqc

CID_28753467_JID_8565_neutraal

0 1
C          1.04687        0.01310       -0.08736
C          0.59994       -1.45806       -0.22783
C          1.20274       -2.28588        0.92769
C         -0.93576       -1.48704       -0.05685
C          1.08769       -2.01603       -1.57793
C          0.20502       -2.50268       -2.55875
C          0.67467       -3.00085       -3.77857
C          2.04228       -3.00331       -4.04222
C          2.94646       -2.55802       -3.08011
C          2.46800       -2.06217       -1.86469
S          2.65500       -3.62724       -5.58701
O          3.76022       -4.50737       -5.25268
O          1.52555       -4.12770       -6.34751
C          3.33402       -2.21352       -6.43481
C          2.33252       -1.33746       -7.17945
C          1.44889       -0.42269       -6.32545
C          2.18009        0.54831       -5.39566
N          3.04372        1.46298       -6.12858
H          0.68450        0.44849        0.85126
H          0.65788        0.62393       -0.91074
H          2.13751        0.11667       -0.08837
H          0.84024       -1.93054        1.89942
H          0.93197       -3.34454        0.83735
H          2.29628       -2.22723        0.95411
H         -1.43885       -0.88693       -0.82399
H         -1.32837       -2.50918       -0.11017
H         -1.23256       -1.07873        0.91676
H         -0.87028       -2.51339       -2.39876
H         -0.03668       -3.37856       -4.51056
H          4.01870       -2.60112       -3.25705
H          3.19502       -1.71701       -1.13161
H          3.95715       -1.64957       -5.73629
H          4.01652       -2.64484       -7.17832
H          2.89346       -0.71156       -7.88489
H          1.68104       -1.96473       -7.79969
H          0.81212        0.15878       -7.00588
H          0.75854       -1.02914       -5.73301
H          1.43389        1.13642       -4.84982
H          2.76817        0.01081       -4.64708
H          3.44534        2.14309       -5.48329
H          3.83006        0.96621       -6.54207

--Link1--
%chk=JID_8565.chk
%mem=8GB
%nprocshared=4
# B3LYP/6-311++G(d,p) empiricaldispersion=gd3bj scf=xqc pop=npa geom=check

CID_28753467_JID_8565_Energie_neutraal

0 1

--Link1--
%chk=JID_8565.chk
%mem=8GB
%nprocshared=4
# B3LYP/6-311++G(d,p) empiricaldispersion=gd3bj scf=xqc pop=npa geom=check

CID_28753467_JID_8565_Energie_kation

1 2

--Link1--
%chk=JID_8565.chk
%mem=8GB
%nprocshared=4
# B3LYP/6-311++G(d,p) empiricaldispersion=gd3bj scf=xqc pop=npa geom=check

CID_28753467_JID_8565_Energie_anion

-1 2
