%chk=JID_3738.chk
%mem=8GB
%nprocshared=4
# opt freq B3LYP/6-31G(d) empiricaldispersion=gd3bj scf=xqc

CID_151728588_JID_3738_neutraal

0 1
C          1.06909        0.07212        0.00502
C          0.53256        0.88706        1.18452
C          0.85531        2.38770        1.04022
C          0.27547        3.13395       -0.16484
C         -1.16567        3.64644       -0.03257
C         -1.41860        4.59090        1.15276
N         -0.52291        5.75516        1.04580
N         -0.20783        6.28780        2.12593
N          0.08192        6.76867        3.11648
O         -1.49451        4.33368       -1.24598
C         -0.95874        0.59279        1.42832
O         -1.12017       -0.76113        1.86701
O          1.24913        0.44028        2.35226
H          0.50369        0.25708       -0.91309
H          1.03430       -1.00261        0.21668
H          2.12300        0.30740       -0.18299
H          0.60595        2.90551        1.97380
H          1.95015        2.47822        0.97976
H          0.92526        3.99683       -0.36746
H          0.35770        2.52502       -1.07260
H         -1.86105        2.80778        0.03395
H         -2.45218        4.95488        1.11268
H         -1.28612        4.06181        2.10313
H         -1.03740        5.19592       -1.20085
H         -1.34751        1.22728        2.23116
H         -1.56852        0.73692        0.53311
H         -1.09806       -1.32947        1.07641
H          0.76574       -0.34655        2.67868

--Link1--
%chk=JID_3738.chk
%mem=8GB
%nprocshared=4
# B3LYP/6-311++G(d,p) empiricaldispersion=gd3bj scf=xqc pop=npa geom=check

CID_151728588_JID_3738_Energie_neutraal

0 1

--Link1--
%chk=JID_3738.chk
%mem=8GB
%nprocshared=4
# B3LYP/6-311++G(d,p) empiricaldispersion=gd3bj scf=xqc pop=npa geom=check

CID_151728588_JID_3738_Energie_kation

1 2

--Link1--
%chk=JID_3738.chk
%mem=8GB
%nprocshared=4
# B3LYP/6-311++G(d,p) empiricaldispersion=gd3bj scf=xqc pop=npa geom=check

CID_151728588_JID_3738_Energie_anion

-1 2
