%chk=JID_10023.chk
%mem=8GB
%nprocshared=4
# opt freq B3LYP/6-31G(d) empiricaldispersion=gd3bj scf=xqc

CID_102893639_JID_10023_neutraal

0 1
C          0.92697       -0.04664        0.04991
C          0.28125       -1.23048        0.75519
C          0.70381       -1.35219        2.18609
C          0.70264       -0.40565        3.19096
N          1.11852       -0.84271        4.43274
C          1.42525       -2.12371        4.37946
S          1.25262       -2.84736        2.82359
C          1.87717       -2.92217        5.58104
C          0.83675       -3.95431        6.00871
N          3.15521       -3.56808        5.30756
C          4.37116       -3.35248        5.88386
O          5.30420       -4.08797        5.54985
C          4.53462       -2.23535        6.94367
C          4.48272       -0.83049        6.31993
C          3.65432        0.17110        7.12826
C          4.60373        0.67815        8.19870
C          5.91975        0.81822        7.45141
C          5.92748       -0.29918        6.39673
C          6.76078       -1.51124        6.78096
N          5.86373       -2.32942        7.59549
H          0.63373        0.90265        0.51044
H          0.61883       -0.01854       -1.00017
H          2.01970       -0.11458        0.08279
H         -0.80943       -1.12334        0.71659
H          0.52835       -2.14306        0.19924
H          0.39882        0.62811        3.07493
H          1.99872       -2.22504        6.41327
H          0.68630       -4.72544        5.24480
H          1.15666       -4.46395        6.92446
H         -0.13155       -3.48058        6.20386
H          3.17284       -4.29393        4.60135
H          3.77018       -2.39438        7.71127
H          4.13811       -0.86339        5.28070
H          2.74453       -0.26080        7.55439
H          3.35468        1.00384        6.47972
H          4.27192        1.62626        8.63180
H          4.69683       -0.05109        9.01117
H          5.93913        1.78909        6.94040
H          6.78167        0.78962        8.12503
H          6.26704        0.10292        5.43545
H          7.66867       -1.24824        7.33173
H          7.06315       -2.06106        5.88178
H          6.17787       -3.30351        7.55303

--Link1--
%chk=JID_10023.chk
%mem=8GB
%nprocshared=4
# B3LYP/6-311++G(d,p) empiricaldispersion=gd3bj scf=xqc pop=npa geom=check

CID_102893639_JID_10023_Energie_neutraal

0 1

--Link1--
%chk=JID_10023.chk
%mem=8GB
%nprocshared=4
# B3LYP/6-311++G(d,p) empiricaldispersion=gd3bj scf=xqc pop=npa geom=check

CID_102893639_JID_10023_Energie_kation

1 2

--Link1--
%chk=JID_10023.chk
%mem=8GB
%nprocshared=4
# B3LYP/6-311++G(d,p) empiricaldispersion=gd3bj scf=xqc pop=npa geom=check

CID_102893639_JID_10023_Energie_anion

-1 2
