%chk=JID_9187.chk
%mem=8GB
%nprocshared=4
# opt freq B3LYP/6-31G(d) empiricaldispersion=gd3bj scf=xqc

CID_43326279_JID_9187_neutraal

0 1
C          2.52400        1.10600       -0.02400
C          1.15451        0.51693        0.09423
C          0.95769       -0.67771        0.76334
N         -0.24668       -1.26012        0.93481
C         -1.34143       -0.64927        0.40313
C         -1.25392        0.55092       -0.31687
C          0.01424        1.14827       -0.40759
O          0.16115        2.34805       -1.06274
C         -0.03436        3.43330       -0.15252
C         -2.45799        1.19804       -0.93938
C         -2.66387       -1.33831        0.69094
O         -3.03570       -1.27356        2.08104
C         -3.48265       -0.03188        2.43797
C         -4.75997        0.40040        2.08615
C         -5.18808        1.66679        2.48474
C         -4.34481        2.47286        3.24445
C         -3.07915        2.03205        3.62272
C         -2.65123        0.76588        3.22384
O         -4.80454        3.70330        3.61062
H          2.66849        1.57251       -1.00387
H          2.68219        1.85546        0.75736
H          3.29494        0.33443        0.07757
H          1.78816       -1.22362        1.20331
H         -1.03936        3.41840        0.28259
H          0.71989        3.42689        0.64132
H          0.07576        4.36445       -0.71623
H         -3.08500        1.65657       -0.17032
H         -2.18466        1.97705       -1.65800
H         -3.04365        0.46649       -1.50476
H         -3.48439       -0.99942        0.05063
H         -2.53620       -2.40253        0.45719
H         -5.42233       -0.24142        1.51404
H         -6.17862        2.02073        2.21387
H         -2.41991        2.64953        4.22352
H         -1.66841        0.40044        3.51116
H         -4.14197        4.12253        4.18383

--Link1--
%chk=JID_9187.chk
%mem=8GB
%nprocshared=4
# B3LYP/6-311++G(d,p) empiricaldispersion=gd3bj scf=xqc pop=npa geom=check

CID_43326279_JID_9187_Energie_neutraal

0 1

--Link1--
%chk=JID_9187.chk
%mem=8GB
%nprocshared=4
# B3LYP/6-311++G(d,p) empiricaldispersion=gd3bj scf=xqc pop=npa geom=check

CID_43326279_JID_9187_Energie_kation

1 2

--Link1--
%chk=JID_9187.chk
%mem=8GB
%nprocshared=4
# B3LYP/6-311++G(d,p) empiricaldispersion=gd3bj scf=xqc pop=npa geom=check

CID_43326279_JID_9187_Energie_anion

-1 2
