%chk=JID_8643.chk
%mem=8GB
%nprocshared=4
# opt freq B3LYP/6-31G(d) empiricaldispersion=gd3bj scf=xqc

CID_114057284_JID_8643_neutraal

0 1
C          0.95359       -0.06148        0.06377
C          0.57225        1.18790       -0.72080
C          1.28699        1.30354       -2.07207
N          0.77701        0.33874       -3.04283
C          1.42187        0.41974       -4.36175
C          2.83241       -0.11789       -4.38751
C          3.20438       -1.45005       -4.62376
N          4.51730       -1.82765       -4.58397
C          5.46835       -0.90867       -4.32658
C          5.19644        0.42061       -4.11195
C          3.86736        0.81321       -4.14421
S          2.20331       -2.80905       -5.17891
C          0.61521       -2.63827       -4.52180
N          0.34013       -2.64167       -3.21181
N         -1.00103       -2.52119       -3.22201
C         -1.48828       -2.45282       -4.49499
N         -0.48292       -2.54238       -5.33640
C         -2.92126       -2.29962       -4.81531
H          0.63319       -0.97114       -0.45252
H          0.47296       -0.04862        1.04719
H          2.03621       -0.11394        0.21628
H         -0.51489        1.21768       -0.86178
H          0.83423        2.06503       -0.11650
H          1.12671        2.31754       -2.45681
H          2.36057        1.17538       -1.90297
H          0.89285       -0.61788       -2.69252
H          0.80838       -0.09786       -5.10395
H          1.41115        1.46124       -4.71092
H          6.48608       -1.28678       -4.31148
H          5.99146        1.13221       -3.92356
H          3.62803        1.86175       -3.97538
H         -1.50562       -2.47618       -2.34297
H         -3.47701       -3.20029       -4.53819
H         -3.35065       -1.44459       -4.28449
H         -3.05763       -2.13351       -5.88890

--Link1--
%chk=JID_8643.chk
%mem=8GB
%nprocshared=4
# B3LYP/6-311++G(d,p) empiricaldispersion=gd3bj scf=xqc pop=npa geom=check

CID_114057284_JID_8643_Energie_neutraal

0 1

--Link1--
%chk=JID_8643.chk
%mem=8GB
%nprocshared=4
# B3LYP/6-311++G(d,p) empiricaldispersion=gd3bj scf=xqc pop=npa geom=check

CID_114057284_JID_8643_Energie_kation

1 2

--Link1--
%chk=JID_8643.chk
%mem=8GB
%nprocshared=4
# B3LYP/6-311++G(d,p) empiricaldispersion=gd3bj scf=xqc pop=npa geom=check

CID_114057284_JID_8643_Energie_anion

-1 2
