%chk=JID_1571.chk
%mem=8GB
%nprocshared=4
# opt freq B3LYP/6-31G(d) empiricaldispersion=gd3bj scf=xqc

CID_144842401_JID_1571_neutraal

0 1
C          0.93522        0.06612       -0.03783
C          1.03183        0.61864        1.36624
C         -1.10035       -3.21351       -0.97281
C         -1.27801       -4.44596       -0.10006
C         -0.37124       -4.45951        1.13599
C         -0.55762       -3.28096        2.12125
C         -2.00871       -3.16130        2.64051
C         -2.53529       -4.38715        3.37557
C          0.43710       -3.39082        3.30065
O          1.58323       -2.55233        3.13466
C          2.54823       -3.05239        2.22388
H         -0.08707        0.15637       -0.41686
H          1.21761       -0.98998       -0.05721
H          1.60205        0.61183       -0.71197
H          0.76443        1.67944        1.38051
H          0.35370        0.08484        2.03839
H          2.05072        0.51467        1.75092
H         -1.43918       -2.30764       -0.46196
H         -1.68945       -3.31486       -1.88997
H         -0.05183       -3.08080       -1.25712
H         -2.32928       -4.54162        0.19107
H         -1.04627       -5.33279       -0.70276
H         -0.52615       -5.40863        1.66395
H          0.66668       -4.48686        0.78796
H         -0.33518       -2.35107        1.58460
H         -2.07139       -2.29767        3.31512
H         -2.68312       -2.93191        1.80760
H         -1.89904       -4.65358        4.22446
H         -3.53966       -4.18532        3.76218
H         -2.60776       -5.25351        2.71200
H         -0.03676       -3.03292        4.22130
H          0.74779       -4.42475        3.49220
H          2.79220       -4.09685        2.43902
H          2.19752       -2.94301        1.19540
H          3.45815       -2.45517        2.33126

--Link1--
%chk=JID_1571.chk
%mem=8GB
%nprocshared=4
# B3LYP/6-311++G(d,p) empiricaldispersion=gd3bj scf=xqc pop=npa geom=check

CID_144842401_JID_1571_Energie_neutraal

0 1

--Link1--
%chk=JID_1571.chk
%mem=8GB
%nprocshared=4
# B3LYP/6-311++G(d,p) empiricaldispersion=gd3bj scf=xqc pop=npa geom=check

CID_144842401_JID_1571_Energie_kation

1 2

--Link1--
%chk=JID_1571.chk
%mem=8GB
%nprocshared=4
# B3LYP/6-311++G(d,p) empiricaldispersion=gd3bj scf=xqc pop=npa geom=check

CID_144842401_JID_1571_Energie_anion

-1 2
