%chk=JID_5755.chk
%mem=8GB
%nprocshared=4
# opt freq B3LYP/6-31G(d) empiricaldispersion=gd3bj scf=xqc

CID_63988323_JID_5755_neutraal

0 1
C          0.78100       -1.26600       -0.21900
C         -0.69523       -1.29966        0.15882
O         -1.36635       -0.14209       -0.33692
C         -0.84069        1.06670        0.20713
C          0.63302        1.22848       -0.15178
C          1.47323        0.01233        0.27952
C          1.72210        0.03668        1.80883
C          2.63018       -1.08982        2.34872
C          4.01461       -1.14512        1.71699
N          4.42657       -2.35362        1.26998
C          5.65548       -2.41089        0.73325
N          6.51009       -1.38651        0.60967
C          6.07019       -0.20610        1.07689
C          4.82945       -0.02695        1.64680
N          2.71723       -0.97059        3.81626
H          0.85256       -1.27746       -1.31490
H          1.28654       -2.16913        0.13372
H         -1.17141       -2.17559       -0.29341
H         -0.83889       -1.37288        1.24244
H         -1.00156        1.08048        1.29064
H         -1.41529        1.89699       -0.21610
H          1.03016        2.15374        0.28010
H          0.71296        1.32345       -1.24268
H          2.44516        0.09173       -0.22286
H          2.15152        1.01301        2.07214
H          0.76127       -0.01357        2.33665
H          2.13329       -2.04776        2.15707
H          5.98769       -3.37616        0.36725
H          6.76792        0.62071        0.97948
H          4.52299        0.94209        2.01596
H          3.25908       -1.76572        4.15985
H          3.25105       -0.14077        4.06472

--Link1--
%chk=JID_5755.chk
%mem=8GB
%nprocshared=4
# B3LYP/6-311++G(d,p) empiricaldispersion=gd3bj scf=xqc pop=npa geom=check

CID_63988323_JID_5755_Energie_neutraal

0 1

--Link1--
%chk=JID_5755.chk
%mem=8GB
%nprocshared=4
# B3LYP/6-311++G(d,p) empiricaldispersion=gd3bj scf=xqc pop=npa geom=check

CID_63988323_JID_5755_Energie_kation

1 2

--Link1--
%chk=JID_5755.chk
%mem=8GB
%nprocshared=4
# B3LYP/6-311++G(d,p) empiricaldispersion=gd3bj scf=xqc pop=npa geom=check

CID_63988323_JID_5755_Energie_anion

-1 2
