%chk=JID_9710.chk
%mem=8GB
%nprocshared=4
# opt freq B3LYP/6-31G(d) empiricaldispersion=gd3bj scf=xqc

CID_79182622_JID_9710_neutraal

0 1
C          0.95095       -0.05721        0.06573
N          0.17983        0.98795        0.72558
C          0.75602        2.32763        0.52774
C          0.43903        2.94239       -0.84213
O         -0.97303        3.01141       -1.07456
C         -1.61806        1.72275       -0.97782
C         -1.24141        0.99617        0.33917
C         -1.42423        0.92605       -2.27675
N         -2.14710       -0.33061       -2.32032
C         -3.51279       -0.45618       -2.29886
C         -3.82969       -1.80376       -2.33734
C         -2.59672       -2.51876       -2.41831
C         -1.57244       -1.57279       -2.41807
N         -0.24822       -1.81525       -2.49334
C          0.05507       -3.12869       -2.57210
C         -0.86070       -4.16979       -2.57528
C         -2.22115       -3.87263       -2.49672
C         -5.17540       -2.34343       -2.30750
O         -6.18711       -1.65313       -2.22992
H          1.08215        0.10886       -1.00499
H          0.48653       -1.03718        0.21839
H          1.95012       -0.11905        0.51186
H          0.33579        2.98085        1.30337
H          1.83944        2.31286        0.69533
H          0.92410        2.39517       -1.65677
H          0.82094        3.96818       -0.87526
H         -2.68783        1.95705       -0.90351
H         -1.65938       -0.01673        0.36968
H         -1.75779        1.53387        1.14702
H         -1.78532        1.52215       -3.12524
H         -0.36983        0.73869       -2.49093
H         -4.16053        0.41147       -2.25015
H          1.12007       -3.34126       -2.63599
H         -0.52103       -5.19806       -2.64035
H         -2.95784       -4.66917       -2.50065
H         -5.24815       -3.44252       -2.35680

--Link1--
%chk=JID_9710.chk
%mem=8GB
%nprocshared=4
# B3LYP/6-311++G(d,p) empiricaldispersion=gd3bj scf=xqc pop=npa geom=check

CID_79182622_JID_9710_Energie_neutraal

0 1

--Link1--
%chk=JID_9710.chk
%mem=8GB
%nprocshared=4
# B3LYP/6-311++G(d,p) empiricaldispersion=gd3bj scf=xqc pop=npa geom=check

CID_79182622_JID_9710_Energie_kation

1 2

--Link1--
%chk=JID_9710.chk
%mem=8GB
%nprocshared=4
# B3LYP/6-311++G(d,p) empiricaldispersion=gd3bj scf=xqc pop=npa geom=check

CID_79182622_JID_9710_Energie_anion

-1 2
