%chk=JID_10633.chk
%mem=8GB
%nprocshared=4
# opt freq B3LYP/6-31G(d) empiricaldispersion=gd3bj scf=xqc

CID_62379838_JID_10633_neutraal

0 1
C          1.34400       -0.22500        0.03600
C          0.73989        0.50728       -0.98370
C         -0.65168        0.58657       -1.05200
C         -1.44356       -0.07838       -0.11382
C         -0.83728       -0.77692        0.92807
C          0.55614       -0.85998        0.99452
O         -2.79231        0.05248       -0.27818
C         -3.58932       -1.11946       -0.07574
C         -3.68726       -1.94804       -1.36065
C         -2.56756       -2.97855       -1.49795
N         -2.86956       -4.18474       -0.70055
S         -1.56370       -5.02803       -0.04056
O         -0.83595       -4.10651        0.80268
O         -2.09407       -6.26769        0.48437
C         -0.47835       -5.47085       -1.27702
C         -0.44679       -6.60393       -2.05785
N          0.61656       -6.42508       -2.90515
N          1.27613       -5.26535       -2.71691
C          0.60699       -4.69038       -1.71201
N         -1.21158       -7.71569       -2.10357
H          2.42749       -0.29132        0.09195
H          1.35055        1.01730       -1.72390
H         -1.12139        1.15981       -1.84693
H         -1.41846       -1.26347        1.70422
H          1.02396       -1.42365        1.79830
H         -3.28702       -1.71627        0.79005
H         -4.59309       -0.74446        0.15671
H         -4.65600       -2.46182       -1.38474
H         -3.65028       -1.27380       -2.22486
H         -2.50372       -3.29680       -2.54506
H         -1.59995       -2.55031       -1.23384
H         -3.58079       -4.07186        0.02086
H          0.93907       -7.05129       -3.63292
H          0.93450       -3.72500       -1.34384
H         -0.89812       -8.57641       -2.54599
H         -1.85320       -7.89591       -1.32487

--Link1--
%chk=JID_10633.chk
%mem=8GB
%nprocshared=4
# B3LYP/6-311++G(d,p) empiricaldispersion=gd3bj scf=xqc pop=npa geom=check

CID_62379838_JID_10633_Energie_neutraal

0 1

--Link1--
%chk=JID_10633.chk
%mem=8GB
%nprocshared=4
# B3LYP/6-311++G(d,p) empiricaldispersion=gd3bj scf=xqc pop=npa geom=check

CID_62379838_JID_10633_Energie_kation

1 2

--Link1--
%chk=JID_10633.chk
%mem=8GB
%nprocshared=4
# B3LYP/6-311++G(d,p) empiricaldispersion=gd3bj scf=xqc pop=npa geom=check

CID_62379838_JID_10633_Energie_anion

-1 2
