%chk=JID_854.chk
%mem=8GB
%nprocshared=4
# opt freq B3LYP/6-31G(d) empiricaldispersion=gd3bj scf=xqc

CID_17781163_JID_854_neutraal

0 1
C          1.07047       -0.05710        0.04212
C          0.56116        0.13736       -1.34410
C          1.53175        0.28628       -2.48136
S          0.63610       -1.19256       -2.44129
C          1.26535        1.25422       -3.59565
C          1.45575        2.71458       -3.16763
C          2.83163        2.98687       -2.63381
C          4.01410        3.07523       -3.55734
S          3.49694        4.56759       -2.86285
C          5.32882        2.51383       -3.13759
H          0.32453       -0.57466        0.65441
H          1.26519        0.91645        0.50398
H          2.00156       -0.63375        0.07740
H         -0.36342        0.70129       -1.36193
H          2.59093        0.17003       -2.28388
H          1.94256        1.02453       -4.42767
H          0.24372        1.14527       -3.98231
H          1.23017        3.35234       -4.03220
H          0.72316        2.96743       -2.39100
H          2.97316        2.58534       -1.63727
H          3.85558        2.98029       -4.62470
H          5.37137        1.44819       -3.38598
H          6.14616        3.01461       -3.66661
H          5.50795        2.61026       -2.06072

--Link1--
%chk=JID_854.chk
%mem=8GB
%nprocshared=4
# B3LYP/6-311++G(d,p) empiricaldispersion=gd3bj scf=xqc pop=npa geom=check

CID_17781163_JID_854_Energie_neutraal

0 1

--Link1--
%chk=JID_854.chk
%mem=8GB
%nprocshared=4
# B3LYP/6-311++G(d,p) empiricaldispersion=gd3bj scf=xqc pop=npa geom=check

CID_17781163_JID_854_Energie_kation

1 2

--Link1--
%chk=JID_854.chk
%mem=8GB
%nprocshared=4
# B3LYP/6-311++G(d,p) empiricaldispersion=gd3bj scf=xqc pop=npa geom=check

CID_17781163_JID_854_Energie_anion

-1 2
