%chk=JID_4117.chk
%mem=8GB
%nprocshared=4
# opt freq B3LYP/6-31G(d) empiricaldispersion=gd3bj scf=xqc

CID_130946593_JID_4117_neutraal

0 1
C          1.04426        0.05891        0.06760
C          0.77679        1.28239        0.96280
C          1.59965        2.50706        0.44098
C          0.92072        3.18445       -0.75214
C         -0.54631        3.47480       -0.46758
C         -1.28674        2.20299       -0.06573
N         -0.67876        1.45767        1.03595
C         -1.37535        1.54799        2.32993
C         -1.19334        0.30264        3.22616
C         -0.03413        0.37436        4.21806
C          0.09739        1.75143        4.85115
O          0.10951        2.77797        3.86071
C         -1.12746        2.82712        3.14808
N          1.84706        3.50688        1.49200
H          0.71828        0.21865       -0.96530
H          0.52620       -0.82710        0.45232
H          2.11446       -0.17501        0.04690
H          1.18760        1.01947        1.93691
H          2.58808        2.16190        0.11352
H          0.99593        2.53328       -1.63208
H          1.43900        4.11424       -1.01778
H         -1.01184        3.89521       -1.36682
H         -0.64078        4.23531        0.31478
H         -1.32897        1.53753       -0.93765
H         -2.33362        2.45456        0.14359
H         -2.44671        1.54816        2.08406
H         -2.11504        0.18660        3.81404
H         -1.11843       -0.60977        2.62208
H          0.90112        0.11489        3.71478
H         -0.16931       -0.38112        5.00087
H          1.03664        1.81418        5.41010
H         -0.71686        1.93855        5.56135
H         -1.12605        3.71451        2.50942
H         -1.94298        2.97812        3.86748
H          2.36216        3.06227        2.25382
H          0.95850        3.74030        1.93851

--Link1--
%chk=JID_4117.chk
%mem=8GB
%nprocshared=4
# B3LYP/6-311++G(d,p) empiricaldispersion=gd3bj scf=xqc pop=npa geom=check

CID_130946593_JID_4117_Energie_neutraal

0 1

--Link1--
%chk=JID_4117.chk
%mem=8GB
%nprocshared=4
# B3LYP/6-311++G(d,p) empiricaldispersion=gd3bj scf=xqc pop=npa geom=check

CID_130946593_JID_4117_Energie_kation

1 2

--Link1--
%chk=JID_4117.chk
%mem=8GB
%nprocshared=4
# B3LYP/6-311++G(d,p) empiricaldispersion=gd3bj scf=xqc pop=npa geom=check

CID_130946593_JID_4117_Energie_anion

-1 2
