%chk=JID_4458.chk
%mem=8GB
%nprocshared=4
# opt freq B3LYP/6-31G(d) empiricaldispersion=gd3bj scf=xqc

CID_107006928_JID_4458_neutraal

0 1
C          1.03841        0.06229       -0.06815
C          0.31334        0.28351       -1.17183
C         -1.15395        0.60244       -1.16094
C         -1.46585        2.02922       -1.62405
C         -1.09378        2.35303       -3.07628
C         -1.74133        1.46336       -4.14564
C         -3.27027        1.35468       -4.08838
N         -3.90810        2.65630       -4.24970
C         -5.36855        2.59819       -4.30223
C         -6.00367        2.36845       -2.93491
C         -6.14915        0.91154       -2.41981
C         -7.56075        1.27722       -1.91705
C         -7.55283        2.44470       -2.92500
O         -7.67536        1.62971       -0.52455
H          0.60019        0.11052        0.92388
H          2.09629       -0.17259       -0.13696
H          0.80107        0.21532       -2.14203
H         -1.67903       -0.12880       -1.78511
H         -1.55608        0.47697       -0.14749
H         -2.53536        2.21870       -1.47321
H         -0.94259        2.73947       -0.97044
H         -1.35612        3.40007       -3.27199
H         -0.00481        2.29919       -3.19549
H         -1.44600        1.84302       -5.13257
H         -1.31987        0.45314       -4.07657
H         -3.59149        0.68549       -4.89557
H         -3.56045        0.88667       -3.14443
H         -3.60723        3.30301       -3.52279
H         -5.70842        3.56851       -4.68358
H         -5.70408        1.85255       -5.03305
H         -5.57482        3.03612       -2.17263
H         -5.43632        0.61956       -1.64328
H         -6.15241        0.14464       -3.20303
H         -8.31003        0.51356       -2.15255
H         -8.03330        2.19658       -3.87875
H         -7.96599        3.38988       -2.56099
H         -6.99543        2.30556       -0.36380

--Link1--
%chk=JID_4458.chk
%mem=8GB
%nprocshared=4
# B3LYP/6-311++G(d,p) empiricaldispersion=gd3bj scf=xqc pop=npa geom=check

CID_107006928_JID_4458_Energie_neutraal

0 1

--Link1--
%chk=JID_4458.chk
%mem=8GB
%nprocshared=4
# B3LYP/6-311++G(d,p) empiricaldispersion=gd3bj scf=xqc pop=npa geom=check

CID_107006928_JID_4458_Energie_kation

1 2

--Link1--
%chk=JID_4458.chk
%mem=8GB
%nprocshared=4
# B3LYP/6-311++G(d,p) empiricaldispersion=gd3bj scf=xqc pop=npa geom=check

CID_107006928_JID_4458_Energie_anion

-1 2
