%chk=JID_4547.chk
%mem=8GB
%nprocshared=4
# opt=(cartesian,calcfc) freq B3LYP/6-31G(d) empiricaldispersion=gd3bj scf=xqc

CID_117226125_JID_4547_neutraal

0 1
C          0.98878       -0.09054        0.04096
C          0.47642       -0.95248        1.20988
C         -1.02501       -0.74031        1.42678
N         -1.82114       -1.21074        0.30823
C         -1.49377       -2.53794       -0.19467
O         -0.09421       -2.83800       -0.21723
C          0.66478       -2.43946        0.91079
C         -1.85389       -2.47619       -1.69792
C         -2.30780       -3.72239        0.39286
C         -2.47782       -3.85560        1.91281
C         -3.58928       -3.00730        2.53368
O         -4.79492       -3.14475        1.78708
C         -5.84547       -2.35957        2.33655
C          1.24779       -0.57174        2.48230
H          0.82792        0.97494        0.24095
H          0.49145       -0.32630       -0.90507
H          2.06387       -0.24024       -0.11091
H         -1.32934       -1.23945        2.35131
H         -1.23473        0.32565        1.57694
H         -2.81901       -1.14265        0.49509
H          1.71643       -2.65352        0.68741
H          0.40119       -3.06616        1.76814
H         -1.62163       -3.42701       -2.19360
H         -2.91462       -2.25414       -1.86238
H         -1.25935       -1.71313       -2.21636
H         -3.30550       -3.74242       -0.06366
H         -1.81239       -4.64606        0.05967
H         -2.74716       -4.90469        2.09850
H         -1.53825       -3.68853        2.44354
H         -3.76120       -3.34592        3.56251
H         -3.31420       -1.95226        2.57395
H         -6.08177       -2.69468        3.35088
H         -5.56933       -1.30042        2.34427
H         -6.73253       -2.48340        1.70995
H          2.32341       -0.73937        2.35749
H          1.09985        0.48501        2.73181
H          0.91699       -1.16555        3.34183

--Link1--
%chk=JID_4547.chk
%mem=8GB
%nprocshared=4
# B3LYP/6-311++G(d,p) empiricaldispersion=gd3bj scf=xqc pop=npa geom=check

CID_117226125_JID_4547_Energie_neutraal

0 1

--Link1--
%chk=JID_4547.chk
%mem=8GB
%nprocshared=4
# B3LYP/6-311++G(d,p) empiricaldispersion=gd3bj scf=xqc pop=npa geom=check

CID_117226125_JID_4547_Energie_kation

1 2

--Link1--
%chk=JID_4547.chk
%mem=8GB
%nprocshared=4
# B3LYP/6-311++G(d,p) empiricaldispersion=gd3bj scf=xqc pop=npa geom=check

CID_117226125_JID_4547_Energie_anion

-1 2
