%chk=JID_3093.chk
%mem=8GB
%nprocshared=4
# opt freq B3LYP/6-31G(d) empiricaldispersion=gd3bj scf=xqc

CID_82606695_JID_3093_neutraal

0 1
C          0.92531        0.05350        0.03949
C         -0.07304        0.67076       -0.90526
O         -1.23281        0.26429       -0.95641
N          0.38182        1.70156       -1.69129
C         -0.54116        2.35754       -2.63753
C          0.33753        3.38646       -3.23071
C          0.18634        4.37502       -4.16447
S          1.66295        5.23207       -4.38146
C          2.49740        4.26266       -3.22140
C          1.64449        3.32244       -2.69577
C          1.75653        2.24326       -1.69312
C          3.93743        4.51582       -2.91368
N          4.79467        3.70316       -3.76631
H          0.44637       -0.76012        0.59252
H          1.27499        0.79919        0.75801
H          1.76844       -0.36113       -0.51889
H         -0.88994        1.62292       -3.36906
H         -1.38438        2.78284       -2.08580
H         -0.69406        4.64698       -4.73010
H          2.00119        2.61678       -0.69524
H          2.45406        1.45757       -1.99569
H          4.18704        5.57404       -3.04872
H          4.13748        4.27316       -1.86359
H          5.76499        3.82798       -3.48771
H          4.57188        2.71896       -3.64104

--Link1--
%chk=JID_3093.chk
%mem=8GB
%nprocshared=4
# B3LYP/6-311++G(d,p) empiricaldispersion=gd3bj scf=xqc pop=npa geom=check

CID_82606695_JID_3093_Energie_neutraal

0 1

--Link1--
%chk=JID_3093.chk
%mem=8GB
%nprocshared=4
# B3LYP/6-311++G(d,p) empiricaldispersion=gd3bj scf=xqc pop=npa geom=check

CID_82606695_JID_3093_Energie_kation

1 2

--Link1--
%chk=JID_3093.chk
%mem=8GB
%nprocshared=4
# B3LYP/6-311++G(d,p) empiricaldispersion=gd3bj scf=xqc pop=npa geom=check

CID_82606695_JID_3093_Energie_anion

-1 2
