%chk=JID_4780.chk
%mem=8GB
%nprocshared=4
# opt freq B3LYP/6-31G(d) empiricaldispersion=gd3bj scf=xqc

CID_148076742_JID_4780_neutraal

0 1
C          0.92615        0.06742       -0.00030
C          0.57572        1.55369        0.03883
C          1.47327        2.46786       -0.85065
C          1.44068        1.93500       -2.30027
C          0.91168        3.91672       -0.85558
C          0.78907        4.58488        0.50935
C          2.91677        2.46200       -0.28494
O          3.14884        2.18169        0.89489
C          4.06623        2.78382       -1.17039
C          5.17844        1.99793       -1.15663
C          6.31961        2.29887       -2.06870
C          6.26391        3.36226       -2.91230
C          5.05088        4.10475       -2.82560
C          4.13051        3.86196       -2.09966
H          0.74583       -0.36248       -0.98987
H          0.29626       -0.47880        0.70988
H          1.96916       -0.11538        0.27221
H         -0.47298        1.66425       -0.26649
H          0.62623        1.87405        1.08641
H          0.41355        1.72040       -2.61727
H          1.84318        2.66089       -3.01432
H          2.02864        1.01697       -2.40921
H          1.53696        4.55946       -1.48583
H         -0.08289        3.91547       -1.32121
H          1.75035        4.62291        1.02911
H          0.43808        5.61500        0.38552
H          0.06451        4.07098        1.14719
H          5.26527        1.13818       -0.49880
H          7.18360        1.64349       -2.03406
H          7.05896        3.63239       -3.59479

--Link1--
%chk=JID_4780.chk
%mem=8GB
%nprocshared=4
# B3LYP/6-311++G(d,p) empiricaldispersion=gd3bj scf=xqc pop=npa geom=check

CID_148076742_JID_4780_Energie_neutraal

0 1

--Link1--
%chk=JID_4780.chk
%mem=8GB
%nprocshared=4
# B3LYP/6-311++G(d,p) empiricaldispersion=gd3bj scf=xqc pop=npa geom=check

CID_148076742_JID_4780_Energie_kation

1 2

--Link1--
%chk=JID_4780.chk
%mem=8GB
%nprocshared=4
# B3LYP/6-311++G(d,p) empiricaldispersion=gd3bj scf=xqc pop=npa geom=check

CID_148076742_JID_4780_Energie_anion

-1 2
