%chk=JID_6213.chk
%mem=8GB
%nprocshared=4
# opt freq B3LYP/6-31G(d) empiricaldispersion=gd3bj scf=xqc

CID_105413192_JID_6213_neutraal

0 1
C          1.00653       -0.07603       -0.06463
C          0.68023        0.19700        1.40872
C          1.52484        1.39332        1.87551
C         -0.86386        0.28082        1.71778
C         -1.50651       -1.10225        1.41825
C         -1.08803        0.53385        3.22434
C         -1.66723        1.32384        0.88871
N         -1.02913        2.63054        0.82889
C         -1.45260        3.67376        1.45225
C         -2.61169        3.73271        2.36991
C         -3.90967        3.76737        1.85943
C         -4.98651        3.88577        2.73918
C         -4.76070        3.97638        4.11541
C         -3.45874        3.95652        4.61825
C         -2.37909        3.84527        3.74386
N         -0.74961        4.83150        1.26561
H          0.63439        0.72142       -0.71519
H          0.58011       -1.02379       -0.40451
H          2.09003       -0.14527       -0.21412
H          1.06388       -0.66546        1.97341
H          1.36850        2.28157        1.25885
H          1.33995        1.65418        2.91992
H          2.59074        1.14692        1.80083
H         -0.98837       -1.90603        1.95315
H         -2.55844       -1.12489        1.72707
H         -1.48443       -1.34093        0.34991
H         -0.71718        1.51112        3.53800
H         -2.15380        0.49399        3.47894
H         -0.57916       -0.22479        3.82991
H         -1.75186        0.97190       -0.14740
H         -2.70026        1.36990        1.25044
H         -4.07788        3.71027        0.78754
H         -6.00263        3.91320        2.35377
H         -5.60238        4.06767        4.79804
H         -3.28659        4.02970        5.68910
H         -1.36408        3.83276        4.13136
H          0.16064        4.67272        0.84812
H         -0.76512        5.52043        2.00598

--Link1--
%chk=JID_6213.chk
%mem=8GB
%nprocshared=4
# B3LYP/6-311++G(d,p) empiricaldispersion=gd3bj scf=xqc pop=npa geom=check

CID_105413192_JID_6213_Energie_neutraal

0 1

--Link1--
%chk=JID_6213.chk
%mem=8GB
%nprocshared=4
# B3LYP/6-311++G(d,p) empiricaldispersion=gd3bj scf=xqc pop=npa geom=check

CID_105413192_JID_6213_Energie_kation

1 2

--Link1--
%chk=JID_6213.chk
%mem=8GB
%nprocshared=4
# B3LYP/6-311++G(d,p) empiricaldispersion=gd3bj scf=xqc pop=npa geom=check

CID_105413192_JID_6213_Energie_anion

-1 2
