%chk=JID_9040.chk
%mem=8GB
%nprocshared=4
# opt freq B3LYP/6-31G(d) empiricaldispersion=gd3bj scf=xqc

CID_93875307_JID_9040_neutraal

0 1
C          0.94923        0.08595        0.00595
C         -0.29619       -0.51601        0.64121
C         -0.03115       -0.98494        2.04285
C         -0.41400       -0.37288        3.17942
C         -1.11083        0.94030        3.32045
C          0.01112       -1.00520        4.45612
O          0.98194       -0.58329        5.07470
N         -0.72050       -2.06082        4.90709
C         -2.05925       -2.45344        4.48755
C         -2.56589       -3.72314        5.25725
C         -1.81492       -4.93593        4.64976
C         -4.06828       -3.90012        4.94891
N         -2.26517       -3.59942        6.72035
C         -2.46001       -4.83272        7.51240
C         -2.06235       -4.66574        9.00185
N         -2.69563       -3.53239        9.69874
C         -2.52558       -2.31874        8.87994
C         -2.94380       -2.46990        7.39590
C         -4.10031       -3.79616        9.99814
H          1.28738        0.96814        0.55996
H          0.73760        0.39288       -1.02327
H          1.77108       -0.63760       -0.01897
H         -1.11358        0.21132        0.60669
H         -0.62872       -1.37495        0.04631
H          0.53513       -1.91407        2.11824
H         -2.15607        0.78358        3.60540
H         -0.63445        1.55309        4.09318
H         -1.09353        1.52541        2.39701
H         -0.44130       -2.38920        5.82706
H         -2.71876       -1.59592        4.66633
H         -2.05291       -2.62615        3.40537
H         -2.23332       -5.89008        4.98855
H         -1.88798       -4.93740        3.55552
H         -0.74929       -4.91874        4.90542
H         -4.65697       -3.02959        5.25583
H         -4.22984       -4.02735        3.87169
H         -4.48586       -4.78333        5.44301
H         -3.50119       -5.17005        7.45516
H         -1.83240       -5.64015        7.12205
H         -0.97398       -4.52663        9.05455
H         -2.26291       -5.60026        9.54082
H         -1.46608       -2.03112        8.91499
H         -3.07144       -1.48063        9.33094
H         -2.69933       -1.52387        6.90261
H         -4.03243       -2.58622        7.34864
H         -4.71092       -3.97161        9.10690
H         -4.19147       -4.67283       10.64925
H         -4.53635       -2.95519       10.54888

--Link1--
%chk=JID_9040.chk
%mem=8GB
%nprocshared=4
# B3LYP/6-311++G(d,p) empiricaldispersion=gd3bj scf=xqc pop=npa geom=check

CID_93875307_JID_9040_Energie_neutraal

0 1

--Link1--
%chk=JID_9040.chk
%mem=8GB
%nprocshared=4
# B3LYP/6-311++G(d,p) empiricaldispersion=gd3bj scf=xqc pop=npa geom=check

CID_93875307_JID_9040_Energie_kation

1 2

--Link1--
%chk=JID_9040.chk
%mem=8GB
%nprocshared=4
# B3LYP/6-311++G(d,p) empiricaldispersion=gd3bj scf=xqc pop=npa geom=check

CID_93875307_JID_9040_Energie_anion

-1 2
