%chk=JID_10763.chk
%mem=8GB
%nprocshared=4
# opt freq B3LYP/6-31G(d) empiricaldispersion=gd3bj scf=xqc

CID_66483612_JID_10763_neutraal

0 1
C          1.07156       -0.06121       -0.03364
C          0.79469        1.43094        0.11489
N          1.16270        1.91827        1.45030
C          1.26957        3.40227        1.46004
C          1.20335        4.05020        2.86503
N          1.52188        3.09442        3.92108
C          0.71755        1.86633        3.90643
C          0.20671        1.49948        2.49447
C          2.40552        3.46665        4.92413
O          2.85880        4.60276        5.04642
C          2.81966        2.47096        5.93291
C          3.59576        1.35541        5.60815
C          3.96228        0.52059        6.65318
N          3.62550        0.72859        7.95030
C          2.90474        1.83660        8.22620
C          2.48451        2.73397        7.26332
C          3.99408        1.03927        4.27083
C          4.28194        0.75097        3.03226
C          4.61752        0.41488        1.58836
O          4.10523        1.42974        0.74324
H          2.10867       -0.31081        0.19862
H          0.88436       -0.36767       -1.06850
H          0.42098       -0.66592        0.60463
H          1.40122        1.94622       -0.64077
H         -0.25568        1.64742       -0.11521
H          2.22773        3.67224        0.99991
H          0.48533        3.86006        0.84264
H          0.18394        4.40451        3.06227
H          1.86526        4.92161        2.89926
H         -0.13492        2.02812        4.57657
H          1.28632        1.03004        4.31451
H         -0.76758        1.97702        2.32299
H          0.03224        0.41861        2.47839
H          4.55835       -0.37198        6.47898
H          2.67282        1.99030        9.27660
H          1.92269        3.62091        7.53598
H          5.70163        0.36082        1.45647
H          4.17785       -0.54676        1.31089
H          3.19987        1.61459        1.06968

--Link1--
%chk=JID_10763.chk
%mem=8GB
%nprocshared=4
# B3LYP/6-311++G(d,p) empiricaldispersion=gd3bj scf=xqc pop=npa geom=check

CID_66483612_JID_10763_Energie_neutraal

0 1

--Link1--
%chk=JID_10763.chk
%mem=8GB
%nprocshared=4
# B3LYP/6-311++G(d,p) empiricaldispersion=gd3bj scf=xqc pop=npa geom=check

CID_66483612_JID_10763_Energie_kation

1 2

--Link1--
%chk=JID_10763.chk
%mem=8GB
%nprocshared=4
# B3LYP/6-311++G(d,p) empiricaldispersion=gd3bj scf=xqc pop=npa geom=check

CID_66483612_JID_10763_Energie_anion

-1 2
