%chk=JID_5862.chk
%mem=8GB
%nprocshared=4
# opt freq B3LYP/6-31G(d) empiricaldispersion=gd3bj scf=xqc

CID_130887424_JID_5862_neutraal

0 1
C         -1.50500        0.02200       -0.20100
C         -0.78151        1.18345        0.45593
C          0.67413        1.19439        0.00586
N          1.37926       -0.08478        0.11877
C          0.60072       -1.30833       -0.14688
C         -0.86119       -1.25557        0.30044
C          1.25173       -2.47411        0.58715
O          1.79909       -3.41571        0.01684
C          2.73304       -0.06400       -0.47336
C          3.04028        0.01281       -2.00090
C          2.52990        1.26509       -2.72555
C          1.24109        0.79398       -3.35527
O          0.34304        1.49370       -3.78365
N          1.27111       -0.58272       -3.39574
C          2.48942       -1.11760       -2.86305
H         -2.56396        0.03881        0.07905
H         -1.45302        0.08916       -1.29405
H         -1.26212        2.12804        0.17633
H         -0.84225        1.10412        1.54856
H          0.65590        1.54942       -1.02030
H          1.20898        1.95020        0.59411
H          0.57598       -1.54409       -1.20782
H         -0.94353       -1.31358        1.39436
H         -1.40335       -2.12390       -0.09410
H          1.23584       -2.41535        1.69021
H          3.26274        0.78017       -0.00895
H          3.27250       -0.94144       -0.09265
H          4.13614       -0.00386       -2.07044
H          3.20773        1.54843       -3.53828
H          2.38966        2.12451       -2.06855
H          0.52951       -1.11016       -3.84051
H          3.14696       -1.31875       -3.71574
H          2.31587       -2.05673       -2.33628

--Link1--
%chk=JID_5862.chk
%mem=8GB
%nprocshared=4
# B3LYP/6-311++G(d,p) empiricaldispersion=gd3bj scf=xqc pop=npa geom=check

CID_130887424_JID_5862_Energie_neutraal

0 1

--Link1--
%chk=JID_5862.chk
%mem=8GB
%nprocshared=4
# B3LYP/6-311++G(d,p) empiricaldispersion=gd3bj scf=xqc pop=npa geom=check

CID_130887424_JID_5862_Energie_kation

1 2

--Link1--
%chk=JID_5862.chk
%mem=8GB
%nprocshared=4
# B3LYP/6-311++G(d,p) empiricaldispersion=gd3bj scf=xqc pop=npa geom=check

CID_130887424_JID_5862_Energie_anion

-1 2
