%chk=JID_8115.chk
%mem=8GB
%nprocshared=4
# opt freq B3LYP/6-31G(d) empiricaldispersion=gd3bj scf=xqc

CID_64456347_JID_8115_neutraal

0 1
C          0.90488       -0.03025       -0.00617
C          0.37362        0.77876       -1.19418
C          1.02705        0.27881       -2.48561
C         -1.16151        0.69677       -1.31929
N         -1.83068        1.34698       -0.19363
C         -3.27517        1.14027       -0.18864
C         -3.68867       -0.16460        0.40984
C         -2.96649       -1.24091        0.89538
C         -3.92239       -2.15900        1.35316
N         -5.16529       -1.71467        1.18543
N         -5.01029       -0.51275        0.59627
C         -6.19675        0.26921        0.28418
C         -6.69559        0.06372       -1.14562
C         -7.45542       -1.21942       -1.32552
C         -6.96766       -2.45588       -1.69925
C         -7.98839       -3.44798       -1.75128
C         -9.22233       -2.93545       -1.42058
S         -9.14774       -1.26682       -1.05721
H          0.59395       -1.07849       -0.07006
H          0.55298        0.37291        0.94789
H          1.99987       -0.00586        0.01864
H          0.66626        1.82788       -1.05617
H          0.77347       -0.76883       -2.68030
H          0.69741        0.87347       -3.34411
H          2.11784        0.35828       -2.42611
H         -1.47092        1.19849       -2.24451
H         -1.45637       -0.35544       -1.40730
H         -1.44832        1.04389        0.69837
H         -3.70630        1.94769        0.41482
H         -3.68771        1.25145       -1.19839
H         -1.89241       -1.35046        0.92253
H         -3.76662       -3.12905        1.80714
H         -6.96378        0.02230        1.02808
H         -5.93501        1.32162        0.43682
H         -7.34653        0.90617       -1.41325
H         -5.85845        0.08963       -1.85446
H         -5.92079       -2.64707       -1.90396
H         -7.82275       -4.48687       -2.00763
H        -10.16566       -3.46125       -1.37042

--Link1--
%chk=JID_8115.chk
%mem=8GB
%nprocshared=4
# B3LYP/6-311++G(d,p) empiricaldispersion=gd3bj scf=xqc pop=npa geom=check

CID_64456347_JID_8115_Energie_neutraal

0 1

--Link1--
%chk=JID_8115.chk
%mem=8GB
%nprocshared=4
# B3LYP/6-311++G(d,p) empiricaldispersion=gd3bj scf=xqc pop=npa geom=check

CID_64456347_JID_8115_Energie_kation

1 2

--Link1--
%chk=JID_8115.chk
%mem=8GB
%nprocshared=4
# B3LYP/6-311++G(d,p) empiricaldispersion=gd3bj scf=xqc pop=npa geom=check

CID_64456347_JID_8115_Energie_anion

-1 2
