%chk=JID_9108.chk
%mem=8GB
%nprocshared=4
# opt freq B3LYP/6-31G(d) empiricaldispersion=gd3bj scf=xqc

CID_133519376_JID_9108_neutraal

0 1
C          0.96211        0.09213        0.00875
C          0.60189        1.39027        0.76091
C          0.58472        2.54346       -0.26267
C         -0.81109        1.22903        1.35465
C          1.58395        1.70594        1.87353
N          2.54254        0.84755        2.23113
S          3.39380        1.57110        3.46626
C          2.40125        2.98638        3.48272
N          1.46913        2.91434        2.55884
N          2.53973        4.06701        4.29465
C          2.92447        3.89053        5.68682
C          3.35439        5.22203        6.30785
C          2.31136        6.34132        6.34561
S          0.84918        5.95778        7.35777
C         -0.28740        5.37631        6.15946
N          0.01682        5.30439        4.88257
C         -1.05396        4.78123        4.18008
C         -2.16402        4.47062        4.93427
S         -1.86155        4.83931        6.58105
H          0.24784       -0.10952       -0.79801
H          0.95348       -0.77608        0.67830
H          1.95987        0.15487       -0.44154
H         -0.10950        2.33540       -1.08486
H          0.27405        3.48817        0.19887
H          1.57959        2.70228       -0.69536
H         -0.83998        0.41844        2.09241
H         -1.14040        2.14345        1.86181
H         -1.54655        0.99966        0.57519
H          1.71773        4.67594        4.21017
H          2.10122        3.43937        6.25149
H          3.78014        3.21030        5.77104
H          3.70940        5.02947        7.32872
H          4.22431        5.59802        5.75292
H          2.77992        7.21529        6.81322
H          2.03350        6.66444        5.33769
H         -0.96482        4.63919        3.10882
H         -3.10593        4.05398        4.60821

--Link1--
%chk=JID_9108.chk
%mem=8GB
%nprocshared=4
# B3LYP/6-311++G(d,p) empiricaldispersion=gd3bj scf=xqc pop=npa geom=check

CID_133519376_JID_9108_Energie_neutraal

0 1

--Link1--
%chk=JID_9108.chk
%mem=8GB
%nprocshared=4
# B3LYP/6-311++G(d,p) empiricaldispersion=gd3bj scf=xqc pop=npa geom=check

CID_133519376_JID_9108_Energie_kation

1 2

--Link1--
%chk=JID_9108.chk
%mem=8GB
%nprocshared=4
# B3LYP/6-311++G(d,p) empiricaldispersion=gd3bj scf=xqc pop=npa geom=check

CID_133519376_JID_9108_Energie_anion

-1 2
