%chk=JID_10660.chk
%mem=8GB
%nprocshared=4
# opt freq B3LYP/6-31G(d) empiricaldispersion=gd3bj scf=xqc

CID_64406002_JID_10660_neutraal

0 1
C          2.49200        0.00400       -0.01400
C          0.98923        0.12228        0.01892
C          0.13813       -1.00270       -0.10037
C         -1.24766       -0.80342       -0.06818
C         -1.78575        0.47958        0.10153
C         -0.94589        1.58408        0.22346
C          0.43394        1.40483        0.18092
C         -3.25949        0.67764        0.12375
N         -4.07508       -0.18083        0.64678
N         -3.80960        1.79452       -0.42959
N          0.73324       -2.27039       -0.27592
C          0.22510       -3.54674       -0.28759
O          0.97840       -4.48810       -0.52631
O         -1.12184       -3.65581        0.01362
C         -1.66726       -4.94709        0.03590
C         -2.74613       -5.19955       -0.80975
C         -3.36071       -6.45068       -0.77789
C         -2.90378       -7.43051        0.10606
C         -1.83612       -7.15971        0.96492
C         -1.21853       -5.90951        0.93923
H          2.83910       -0.65949        0.78470
H          2.82063       -0.38168       -0.98440
H          2.97795        0.97425        0.13519
H         -1.94402       -1.61753       -0.22282
H         -1.35723        2.58016        0.36717
H          1.07832        2.27645        0.28208
H         -3.57192       -0.96208        1.07827
H         -3.36825        2.13418       -1.27565
H         -4.81504        1.68840       -0.52984
H          1.73477       -2.30053       -0.40823
H         -3.10622       -4.43176       -1.48768
H         -4.19778       -6.66220       -1.43804
H         -3.38353       -8.40588        0.12915
H         -1.48695       -7.92314        1.65522
H         -0.39379       -5.69782        1.61271

--Link1--
%chk=JID_10660.chk
%mem=8GB
%nprocshared=4
# B3LYP/6-311++G(d,p) empiricaldispersion=gd3bj scf=xqc pop=npa geom=check

CID_64406002_JID_10660_Energie_neutraal

0 1

--Link1--
%chk=JID_10660.chk
%mem=8GB
%nprocshared=4
# B3LYP/6-311++G(d,p) empiricaldispersion=gd3bj scf=xqc pop=npa geom=check

CID_64406002_JID_10660_Energie_kation

1 2

--Link1--
%chk=JID_10660.chk
%mem=8GB
%nprocshared=4
# B3LYP/6-311++G(d,p) empiricaldispersion=gd3bj scf=xqc pop=npa geom=check

CID_64406002_JID_10660_Energie_anion

-1 2
