%chk=JID_8813.chk
%mem=8GB
%nprocshared=4
# opt freq B3LYP/6-31G(d) empiricaldispersion=gd3bj scf=xqc

CID_55120524_JID_8813_neutraal

0 1
C          1.00327       -0.06365        0.07706
C          0.42408       -0.43865       -1.28046
C          0.51225       -1.93535       -1.58289
O         -0.43481       -2.67594       -0.80738
C          0.03040       -3.21386        0.35832
C          1.23205       -3.90162        0.48533
C          1.62758       -4.39719        1.73383
C          0.82167       -4.23596        2.87508
C         -0.40652       -3.56876        2.71314
C         -0.80378       -3.08127        1.46503
C          1.25001       -4.72196        4.26166
C          0.26546       -5.71458        4.87800
N          0.38887       -7.03644        4.56042
C         -0.51499       -7.86545        5.13062
C         -1.49591       -7.41314        5.99595
N         -1.62018       -6.11064        6.33391
C         -0.72274       -5.27679        5.75709
N          2.61469       -5.29790        4.27297
H          0.39189       -0.44784        0.89707
H          1.03679        1.02600        0.17955
H          2.02293       -0.44473        0.19080
H         -0.62126       -0.11127       -1.31953
H          0.97296        0.10917       -2.05507
H          0.22841       -2.08913       -2.63055
H          1.54334       -2.29102       -1.49198
H          1.87577       -4.07734       -0.37012
H          2.58620       -4.90749        1.80049
H         -1.07447       -3.41111        3.55565
H         -1.75726       -2.56969        1.36165
H          1.30223       -3.83204        4.90288
H         -0.42935       -8.91423        4.87070
H         -2.21252       -8.09149        6.44459
H         -0.82331       -4.23148        6.02995
H          2.84235       -5.53327        5.23814
H          2.51971       -6.21364        3.82141

--Link1--
%chk=JID_8813.chk
%mem=8GB
%nprocshared=4
# B3LYP/6-311++G(d,p) empiricaldispersion=gd3bj scf=xqc pop=npa geom=check

CID_55120524_JID_8813_Energie_neutraal

0 1

--Link1--
%chk=JID_8813.chk
%mem=8GB
%nprocshared=4
# B3LYP/6-311++G(d,p) empiricaldispersion=gd3bj scf=xqc pop=npa geom=check

CID_55120524_JID_8813_Energie_kation

1 2

--Link1--
%chk=JID_8813.chk
%mem=8GB
%nprocshared=4
# B3LYP/6-311++G(d,p) empiricaldispersion=gd3bj scf=xqc pop=npa geom=check

CID_55120524_JID_8813_Energie_anion

-1 2
