%chk=JID_5452.chk
%mem=8GB
%nprocshared=4
# opt freq B3LYP/6-31G(d) empiricaldispersion=gd3bj scf=xqc

CID_61584458_JID_5452_neutraal

0 1
C          0.94278       -0.04564        0.06814
C          0.63093       -0.03066       -1.43504
C          1.83033       -0.57520       -2.22013
N         -0.67485       -0.63931       -1.82456
C         -1.79322        0.20485       -1.33849
C         -2.97899        0.27356       -2.31136
C         -4.09275       -0.72421       -2.03033
O         -5.15656       -0.52712       -2.95558
C         -0.85178       -2.04221       -1.37418
C         -0.00109       -3.04915       -2.14890
O          0.87842       -3.70992       -1.59091
N         -0.23646       -3.27391       -3.47477
C         -1.25071       -2.68641       -4.33913
C         -0.70681       -1.53066       -5.17710
O          0.42257       -1.96001       -5.93594
H          1.14798       -1.05653        0.43436
H          0.12193        0.37524        0.65701
H          1.83184        0.56104        0.27493
H          0.58265        1.02505       -1.73774
H          2.15955       -1.55250       -1.86115
H          1.61220       -0.64410       -3.28967
H          2.68514        0.10309       -2.11209
H         -2.11693       -0.08757       -0.33133
H         -1.44817        1.24321       -1.24348
H         -3.41284        1.28142       -2.25312
H         -2.64157        0.18090       -3.35113
H         -3.76120       -1.75590       -2.14658
H         -4.48947       -0.60347       -1.01729
H         -5.50449        0.37132       -2.82152
H         -0.64698       -2.15619       -0.30397
H         -1.88429       -2.37421       -1.50312
H          0.36461       -3.98388       -3.87559
H         -1.57417       -3.49497       -5.00369
H         -2.11208       -2.36474       -3.75282
H         -1.47223       -1.18219       -5.87699
H         -0.40097       -0.68181       -4.56167
H          1.10958       -2.18511       -5.28265

--Link1--
%chk=JID_5452.chk
%mem=8GB
%nprocshared=4
# B3LYP/6-311++G(d,p) empiricaldispersion=gd3bj scf=xqc pop=npa geom=check

CID_61584458_JID_5452_Energie_neutraal

0 1

--Link1--
%chk=JID_5452.chk
%mem=8GB
%nprocshared=4
# B3LYP/6-311++G(d,p) empiricaldispersion=gd3bj scf=xqc pop=npa geom=check

CID_61584458_JID_5452_Energie_kation

1 2

--Link1--
%chk=JID_5452.chk
%mem=8GB
%nprocshared=4
# B3LYP/6-311++G(d,p) empiricaldispersion=gd3bj scf=xqc pop=npa geom=check

CID_61584458_JID_5452_Energie_anion

-1 2
