%chk=JID_10264.chk
%mem=8GB
%nprocshared=4
# opt freq B3LYP/6-31G(d) empiricaldispersion=gd3bj scf=xqc

CID_105533424_JID_10264_neutraal

0 1
C          2.43000       -0.67900        0.01200
C          2.31369        0.67414       -0.28487
C          1.04910        1.26843       -0.34230
C         -0.11123        0.54244       -0.10788
C          0.01342       -0.82754        0.19495
C          1.28221       -1.43135        0.25138
C         -1.15802       -1.55191        0.43230
C         -2.39203       -0.91055        0.37171
C         -2.43441        0.44817        0.07219
N         -1.30478        1.16014       -0.17477
C         -3.69150        1.20824       -0.01411
C         -3.85896        2.23913       -0.95138
C         -5.08219        2.94604       -1.02061
C         -6.07040        2.56356       -0.11884
N         -5.97515        1.59309        0.81368
C         -4.77710        0.96162        0.82497
S         -7.50413        3.47045       -0.28814
C         -6.83940        4.39165       -1.56777
C         -5.54847        4.01484       -1.85429
N         -4.81555        4.59907       -2.82499
H          3.41016       -1.14670        0.05768
H          3.20194        1.27214       -0.47176
H          0.96665        2.32777       -0.57345
H          1.38102       -2.48926        0.48334
H         -1.11870       -2.61362        0.66192
H         -3.29878       -1.48247        0.53997
H         -3.05026        2.49194       -1.63212
H         -4.71169        0.20081        1.60113
H         -7.43313        5.16042       -2.04065
H         -3.82445        4.40665       -2.93803
H         -5.12594        5.43501       -3.31117

--Link1--
%chk=JID_10264.chk
%mem=8GB
%nprocshared=4
# B3LYP/6-311++G(d,p) empiricaldispersion=gd3bj scf=xqc pop=npa geom=check

CID_105533424_JID_10264_Energie_neutraal

0 1

--Link1--
%chk=JID_10264.chk
%mem=8GB
%nprocshared=4
# B3LYP/6-311++G(d,p) empiricaldispersion=gd3bj scf=xqc pop=npa geom=check

CID_105533424_JID_10264_Energie_kation

1 2

--Link1--
%chk=JID_10264.chk
%mem=8GB
%nprocshared=4
# B3LYP/6-311++G(d,p) empiricaldispersion=gd3bj scf=xqc pop=npa geom=check

CID_105533424_JID_10264_Energie_anion

-1 2
