%chk=JID_8624.chk
%mem=8GB
%nprocshared=4
# opt freq B3LYP/6-31G(d) empiricaldispersion=gd3bj scf=xqc

CID_43620721_JID_8624_neutraal

0 1
C          2.49200        0.00400       -0.01400
C          1.03270        0.05165       -0.35427
C          0.17318       -0.97187        0.06585
C         -1.18760       -0.95554       -0.25938
C         -1.68652        0.08386       -1.04212
C         -0.83404        1.10093       -1.48206
C          0.51877        1.08430       -1.14292
O         -1.89435       -2.01589        0.23333
C         -3.32165       -1.96108        0.25808
C         -3.75299       -1.26091        1.49620
C         -3.90053        0.06424        1.83977
C         -4.34145        0.09555        3.19418
C         -4.44239       -1.23223        3.59728
O         -4.09251       -2.04859        2.55337
C         -4.81994       -1.87114        4.83358
O         -4.89245       -3.06702        5.08050
O         -5.12191       -0.97613        5.80355
C         -4.62042        1.31408        3.99519
H          2.65548       -0.50889        0.93964
H          3.04220       -0.52459       -0.79847
H          2.90169        1.01453        0.08707
H          0.55992       -1.79374        0.66553
H         -2.72608        0.13577       -1.34242
H         -1.22561        1.90684       -2.09782
H          1.16892        1.87985       -1.49968
H         -3.75602       -1.52555       -0.64598
H         -3.67407       -2.99881        0.28746
H         -3.69907        0.91213        1.19937
H         -5.34443       -1.55608        6.56050
H         -3.95180        1.36880        4.86006
H         -4.47040        2.22009        3.39876
H         -5.65632        1.31561        4.34868

--Link1--
%chk=JID_8624.chk
%mem=8GB
%nprocshared=4
# B3LYP/6-311++G(d,p) empiricaldispersion=gd3bj scf=xqc pop=npa geom=check

CID_43620721_JID_8624_Energie_neutraal

0 1

--Link1--
%chk=JID_8624.chk
%mem=8GB
%nprocshared=4
# B3LYP/6-311++G(d,p) empiricaldispersion=gd3bj scf=xqc pop=npa geom=check

CID_43620721_JID_8624_Energie_kation

1 2

--Link1--
%chk=JID_8624.chk
%mem=8GB
%nprocshared=4
# B3LYP/6-311++G(d,p) empiricaldispersion=gd3bj scf=xqc pop=npa geom=check

CID_43620721_JID_8624_Energie_anion

-1 2
