%chk=JID_10644.chk
%mem=8GB
%nprocshared=4
# opt freq B3LYP/6-31G(d) empiricaldispersion=gd3bj scf=xqc

CID_110487234_JID_10644_neutraal

0 1
C          1.99700       -1.53200       -0.00400
C          0.66142       -1.91012        0.10223
C         -0.35740       -0.94559        0.03135
C         -0.04060        0.41595       -0.16561
C          1.31085        0.77048       -0.32881
C          2.32043       -0.19295       -0.20247
N          1.68148        2.13836       -0.41758
N         -0.99721        1.36813       -0.22180
C         -2.29104        1.00432       -0.07826
C         -2.68604       -0.31483        0.09999
C         -1.70569       -1.29922        0.15859
C         -3.34826        2.06562       -0.14117
O         -4.52638        1.73614       -0.30165
N         -3.07575        3.40570       -0.00522
C         -1.82765        4.09899        0.24534
C         -1.34722        4.70412       -1.02260
C         -1.68766        5.85554       -1.70521
C         -0.87967        5.88777       -2.86682
C         -0.09644        4.75931       -2.81922
O         -0.36299        4.04162       -1.69828
H          2.78479       -2.27636        0.07799
H          0.41980       -2.95932        0.25778
H          3.36483        0.10257       -0.25552
H          0.87843        2.68707       -0.74806
H          2.50713        2.29498       -0.98319
H         -3.73583       -0.57389        0.19661
H         -1.99996       -2.33540        0.30540
H         -3.89653        3.98015       -0.13565
H         -2.05893        4.89888        0.95808
H         -1.08271        3.46418        0.72336
H         -2.43316        6.57748       -1.40259
H         -0.87225        6.63691       -3.64581
H          0.65956        4.34443       -3.47094

--Link1--
%chk=JID_10644.chk
%mem=8GB
%nprocshared=4
# B3LYP/6-311++G(d,p) empiricaldispersion=gd3bj scf=xqc pop=npa geom=check

CID_110487234_JID_10644_Energie_neutraal

0 1

--Link1--
%chk=JID_10644.chk
%mem=8GB
%nprocshared=4
# B3LYP/6-311++G(d,p) empiricaldispersion=gd3bj scf=xqc pop=npa geom=check

CID_110487234_JID_10644_Energie_kation

1 2

--Link1--
%chk=JID_10644.chk
%mem=8GB
%nprocshared=4
# B3LYP/6-311++G(d,p) empiricaldispersion=gd3bj scf=xqc pop=npa geom=check

CID_110487234_JID_10644_Energie_anion

-1 2
