%chk=JID_3471.chk
%mem=8GB
%nprocshared=4
# opt freq B3LYP/6-31G(d) empiricaldispersion=gd3bj scf=xqc

CID_149795911_JID_3471_neutraal

0 1
C          0.97474        0.07963        0.05496
C          0.47576       -0.61598        1.32602
C          0.83948        0.23316        2.54902
C         -1.05015       -0.88778        1.25582
N         -1.35053       -1.70473        0.07112
N         -2.49492       -1.57135       -0.38815
N         -3.54350       -1.43531       -0.81306
O         -1.57592       -1.36170        2.51353
C         -1.21558       -2.60273        2.93351
O         -0.45523       -3.36383        2.35225
C         -1.86079       -2.93464        4.26581
C         -1.29215       -2.05061        5.36948
C         -3.37987       -2.83330        4.18331
H          0.45567        1.03053       -0.10666
H          0.82229       -0.54669       -0.82971
H          2.04776        0.28929        0.12343
H          1.01516       -1.56639        1.41447
H          0.30818        1.19089        2.53763
H          0.59172       -0.28238        3.48161
H          1.91423        0.44380        2.56971
H         -1.53091        0.09181        1.12048
H         -1.60365       -3.97754        4.49102
H         -1.54235       -0.99602        5.21010
H         -1.68570       -2.34783        6.34704
H         -0.19998       -2.12760        5.40525
H         -3.76554       -3.44064        3.35735
H         -3.84196       -3.18728        5.11076
H         -3.70846       -1.80172        4.01625

--Link1--
%chk=JID_3471.chk
%mem=8GB
%nprocshared=4
# B3LYP/6-311++G(d,p) empiricaldispersion=gd3bj scf=xqc pop=npa geom=check

CID_149795911_JID_3471_Energie_neutraal

0 1

--Link1--
%chk=JID_3471.chk
%mem=8GB
%nprocshared=4
# B3LYP/6-311++G(d,p) empiricaldispersion=gd3bj scf=xqc pop=npa geom=check

CID_149795911_JID_3471_Energie_kation

1 2

--Link1--
%chk=JID_3471.chk
%mem=8GB
%nprocshared=4
# B3LYP/6-311++G(d,p) empiricaldispersion=gd3bj scf=xqc pop=npa geom=check

CID_149795911_JID_3471_Energie_anion

-1 2
