%chk=JID_103.chk
%mem=8GB
%nprocshared=4
# opt freq B3LYP/6-31G(d) empiricaldispersion=gd3bj scf=xqc

CID_138491847_JID_103_neutraal

0 1
C         -1.04500        1.28400       -0.00700
C          0.31938        1.13625        0.22513
C          0.92985       -0.11514        0.10104
C          0.08642       -1.21097       -0.15397
N         -1.24816       -1.08163       -0.38326
C         -1.77884        0.15628       -0.31628
C          0.60157       -2.62491       -0.13332
C          0.77138       -3.12607        1.27382
O          0.78449       -4.32235        1.56094
N          2.27992       -0.25220        0.46554
H         -1.52313        2.25421        0.06489
H          0.90381        2.00990        0.50099
H         -2.84671        0.21491       -0.50667
H         -0.09906       -3.28756       -0.65393
H          1.56291       -2.68808       -0.65232
H          1.01182       -2.37334        2.04419
H          2.76868       -1.01010       -0.00205
H          2.80647        0.61466        0.38347

--Link1--
%chk=JID_103.chk
%mem=8GB
%nprocshared=4
# B3LYP/6-311++G(d,p) empiricaldispersion=gd3bj scf=xqc pop=npa geom=check

CID_138491847_JID_103_Energie_neutraal

0 1

--Link1--
%chk=JID_103.chk
%mem=8GB
%nprocshared=4
# B3LYP/6-311++G(d,p) empiricaldispersion=gd3bj scf=xqc pop=npa geom=check

CID_138491847_JID_103_Energie_kation

1 2

--Link1--
%chk=JID_103.chk
%mem=8GB
%nprocshared=4
# B3LYP/6-311++G(d,p) empiricaldispersion=gd3bj scf=xqc pop=npa geom=check

CID_138491847_JID_103_Energie_anion

-1 2
