%chk=JID_10212.chk
%mem=8GB
%nprocshared=4
# opt freq B3LYP/6-31G(d) empiricaldispersion=gd3bj scf=xqc

CID_104216021_JID_10212_neutraal

0 1
C          0.94446        0.06591        0.05070
C          0.57343       -1.41680        0.07677
C          0.92605       -2.20867        1.37967
C          0.45494       -1.46101        2.66506
C         -0.97799       -0.93576        2.72482
C          0.26624       -3.59653        1.18146
N          0.95546       -4.53760        0.59796
O          0.19670       -5.71060        0.45247
N         -1.04156       -3.80815        1.55183
C          2.47630       -2.35275        1.47900
O          3.23780       -1.81154        0.67045
N          3.07700       -3.00330        2.51422
C          2.57179       -3.99595        3.46055
C          3.12249       -5.38084        3.11600
C          3.03538       -3.59081        4.84155
N          4.27592       -3.25749        5.14653
C          4.35676       -2.93573        6.48618
C          3.18000       -3.03456        7.19805
S          1.92257       -3.55017        6.15534
C          2.91968       -2.76321        8.63438
H          0.41098        0.64077        0.81111
H          0.67730        0.49162       -0.92261
H          2.01454        0.23091        0.19484
H         -0.50309       -1.49490       -0.12433
H          1.05978       -1.90028       -0.78204
H          0.58511       -2.09645        3.54516
H          1.12357       -0.60458        2.82930
H         -1.69033       -1.73260        2.95174
H         -1.06315       -0.20759        3.53939
H         -1.29610       -0.43814        1.80725
H          0.82480       -6.30117       -0.00609
H         -1.68436       -3.07091        1.28773
H         -1.34773       -4.70516        1.17657
H          4.08749       -2.92200        2.48799
H          1.48312       -4.03942        3.41498
H          4.21798       -5.40074        3.16198
H          2.74703       -6.13641        3.81490
H          2.83741       -5.68340        2.10440
H          5.31239       -2.63101        6.89627
H          2.20962       -1.93785        8.75050
H          2.50953       -3.64859        9.13107
H          3.84314       -2.48635        9.15361

--Link1--
%chk=JID_10212.chk
%mem=8GB
%nprocshared=4
# B3LYP/6-311++G(d,p) empiricaldispersion=gd3bj scf=xqc pop=npa geom=check

CID_104216021_JID_10212_Energie_neutraal

0 1

--Link1--
%chk=JID_10212.chk
%mem=8GB
%nprocshared=4
# B3LYP/6-311++G(d,p) empiricaldispersion=gd3bj scf=xqc pop=npa geom=check

CID_104216021_JID_10212_Energie_kation

1 2

--Link1--
%chk=JID_10212.chk
%mem=8GB
%nprocshared=4
# B3LYP/6-311++G(d,p) empiricaldispersion=gd3bj scf=xqc pop=npa geom=check

CID_104216021_JID_10212_Energie_anion

-1 2
