%chk=JID_5285.chk
%mem=8GB
%nprocshared=4
# opt freq B3LYP/6-31G(d) empiricaldispersion=gd3bj scf=xqc

CID_61454716_JID_5285_neutraal

0 1
C          1.07076       -0.07061       -0.00286
C          0.42649        1.30862        0.05681
C          0.58361        2.10259       -1.24283
C         -0.24636        1.57730       -2.41759
N         -1.67847        1.99070       -2.26233
C         -1.99115        3.23796       -3.01923
C         -2.21510        3.03605       -4.50748
S         -2.79574        0.71061       -2.21525
O         -3.13384        0.36897       -3.57959
O         -2.21300       -0.30585       -1.35773
C         -4.22762        1.31590       -1.34346
C         -3.92527        2.28481       -0.21273
C         -5.26052        1.78465       -2.31375
O         -6.14865        1.09821       -2.79638
O         -5.20965        3.09487       -2.61935
H          0.58328       -0.71437       -0.73978
H          0.99276       -0.56286        0.97185
H          2.13238        0.00386       -0.25907
H         -0.63037        1.21625        0.32736
H          0.90728        1.87291        0.86520
H          0.32057        3.14911       -1.04515
H          1.64222        2.09747       -1.53046
H          0.15872        1.99827       -3.34528
H         -0.14189        0.49415       -2.52470
H         -2.84839        3.74351       -2.57435
H         -1.15588        3.93725       -2.88506
H         -3.18569        2.57537       -4.70933
H         -2.21322        4.00509       -5.01768
H         -1.43885        2.41408       -4.96232
H         -4.66003        0.42146       -0.87304
H         -3.51584        3.23520       -0.56216
H         -4.84052        2.51966        0.34213
H         -3.20546        1.85281        0.48993
H         -5.95739        3.21394       -3.24653

--Link1--
%chk=JID_5285.chk
%mem=8GB
%nprocshared=4
# B3LYP/6-311++G(d,p) empiricaldispersion=gd3bj scf=xqc pop=npa geom=check

CID_61454716_JID_5285_Energie_neutraal

0 1

--Link1--
%chk=JID_5285.chk
%mem=8GB
%nprocshared=4
# B3LYP/6-311++G(d,p) empiricaldispersion=gd3bj scf=xqc pop=npa geom=check

CID_61454716_JID_5285_Energie_kation

1 2

--Link1--
%chk=JID_5285.chk
%mem=8GB
%nprocshared=4
# B3LYP/6-311++G(d,p) empiricaldispersion=gd3bj scf=xqc pop=npa geom=check

CID_61454716_JID_5285_Energie_anion

-1 2
