%chk=JID_7347.chk
%mem=8GB
%nprocshared=4
# opt freq B3LYP/6-31G(d) empiricaldispersion=gd3bj scf=xqc

CID_80804749_JID_7347_neutraal

0 1
C         -2.33600        1.19800        0.00600
C         -1.24698        0.19776       -0.22799
N         -1.61321       -1.05780       -0.51926
C         -0.61950       -1.91007       -0.76170
C          0.70907       -1.54160       -0.74254
C          1.02030       -0.23095       -0.43327
N          0.02389        0.63884       -0.17403
N          2.32290        0.23740       -0.38988
C          2.52502        1.69832       -0.46394
C          2.79143        2.32533        0.90899
O          4.19062        2.23091        1.21792
C          4.47926        2.76508        2.50236
C          3.51695       -0.61229       -0.34927
C          3.89816       -1.06563        1.07711
C          2.99483       -2.16925        1.62791
C          5.35127       -1.55311        1.08749
N         -0.98741       -3.21766       -1.08512
H         -2.06222        1.87351        0.82217
H         -2.49696        1.78653       -0.90186
H         -3.27294        0.69961        0.27298
H          1.46249       -2.27304       -0.99024
H          3.36795        1.90875       -1.13452
H          1.66213        2.19429       -0.92513
H          2.52684        3.38833        0.87295
H          2.19924        1.83741        1.69158
H          4.20893        3.82431        2.54711
H          3.94831        2.20549        3.27827
H          5.55419        2.67121        2.67923
H          3.42520       -1.47420       -1.01976
H          4.35769       -0.03977       -0.76320
H          3.83161       -0.21875        1.76685
H          2.95564       -3.02921        0.95141
H          3.36322       -2.52403        2.59699
H          1.97730       -1.80462        1.79175
H          6.03150       -0.75762        0.76491
H          5.65444       -1.85737        2.09505
H          5.48705       -2.40990        0.41869
H         -1.99951       -3.27138       -0.99900
H         -0.52329       -3.89294       -0.48891

--Link1--
%chk=JID_7347.chk
%mem=8GB
%nprocshared=4
# B3LYP/6-311++G(d,p) empiricaldispersion=gd3bj scf=xqc pop=npa geom=check

CID_80804749_JID_7347_Energie_neutraal

0 1

--Link1--
%chk=JID_7347.chk
%mem=8GB
%nprocshared=4
# B3LYP/6-311++G(d,p) empiricaldispersion=gd3bj scf=xqc pop=npa geom=check

CID_80804749_JID_7347_Energie_kation

1 2

--Link1--
%chk=JID_7347.chk
%mem=8GB
%nprocshared=4
# B3LYP/6-311++G(d,p) empiricaldispersion=gd3bj scf=xqc pop=npa geom=check

CID_80804749_JID_7347_Energie_anion

-1 2
