%chk=JID_7564.chk
%mem=8GB
%nprocshared=4
# opt freq B3LYP/6-31G(d) empiricaldispersion=gd3bj scf=xqc

CID_128203402_JID_7564_neutraal

0 1
C          1.26600       -0.09700        0.26800
C          0.66853        1.14873       -0.35979
C         -0.79029        1.09606        0.07383
C         -1.14064       -0.39935        0.16284
C          0.19214       -1.15022        0.03163
C         -2.18373       -0.77874       -0.88806
C         -1.87291       -0.69749       -2.39483
N         -2.60379       -1.95643       -2.51991
C         -2.50988       -2.27174       -1.10797
C         -2.75791       -2.67783       -3.66532
O         -2.46192       -2.17338       -4.75562
C         -3.37040       -4.07925       -3.64478
C         -4.90094       -4.04275       -3.56678
C         -5.46303       -4.02358       -2.14851
C         -4.73780       -4.94476       -1.21714
C         -3.51175       -5.42498       -1.46513
C         -2.71537       -5.08638       -2.69238
H          1.41995        0.05360        1.34304
H          2.22432       -0.37309       -0.18087
H          1.16738        2.06377       -0.02799
H          0.74072        1.09560       -1.45251
H         -1.43414        1.66327       -0.60584
H         -0.88702        1.54827        1.06892
H         -1.56518       -0.59873        1.15547
H          0.32764       -1.59256       -0.96039
H          0.26671       -1.96634        0.75807
H         -3.10778       -0.22007       -0.65970
H         -2.34378        0.13920       -2.91764
H         -0.82634       -0.78734       -2.69680
H         -1.70792       -2.97570       -0.87446
H         -3.43969       -2.57615       -0.62967
H         -3.13409       -4.45496       -4.65401
H         -5.30007       -3.18794       -4.12646
H         -5.28556       -4.94135       -4.06954
H         -5.43616       -3.00645       -1.74295
H         -6.51965       -4.31452       -2.18719
H         -5.24526       -5.21886       -0.29503
H         -3.04648       -6.09685       -0.74697
H         -2.56820       -6.02963       -3.23579
H         -1.71408       -4.75187       -2.39973

--Link1--
%chk=JID_7564.chk
%mem=8GB
%nprocshared=4
# B3LYP/6-311++G(d,p) empiricaldispersion=gd3bj scf=xqc pop=npa geom=check

CID_128203402_JID_7564_Energie_neutraal

0 1

--Link1--
%chk=JID_7564.chk
%mem=8GB
%nprocshared=4
# B3LYP/6-311++G(d,p) empiricaldispersion=gd3bj scf=xqc pop=npa geom=check

CID_128203402_JID_7564_Energie_kation

1 2

--Link1--
%chk=JID_7564.chk
%mem=8GB
%nprocshared=4
# B3LYP/6-311++G(d,p) empiricaldispersion=gd3bj scf=xqc pop=npa geom=check

CID_128203402_JID_7564_Energie_anion

-1 2
