%chk=JID_4731.chk
%mem=8GB
%nprocshared=4
# opt freq B3LYP/6-31G(d) empiricaldispersion=gd3bj scf=xqc

CID_131149691_JID_4731_neutraal

0 1
C          0.96376        0.05534        0.07500
C          0.89600       -1.47530        0.03770
C          0.09375       -1.97675        1.25475
N         -0.06651       -3.45117        1.35832
C         -1.01123       -3.90029        0.31225
C         -0.32559       -4.23104       -1.02490
O          0.63228       -3.30240       -1.52010
C          0.32306       -1.93393       -1.30450
C         -0.61811       -3.73082        2.69990
C         -0.86139       -5.24181        2.94784
C         -0.32855       -5.00159        4.37725
C          0.53265       -3.84974        3.77656
C          1.95624       -4.33996        3.47947
N          2.77941       -3.28612        2.89220
H          1.39952        0.40404        1.01732
H         -0.03252        0.49962       -0.02440
H          1.58830        0.43756       -0.73946
H          1.91946       -1.86268        0.12534
H          0.61463       -1.61041        2.14937
H         -0.88968       -1.48453        1.27516
H         -1.80804       -3.16084        0.15721
H         -1.53660       -4.81674        0.60424
H         -1.09347       -4.36215       -1.79624
H          0.19411       -5.19180       -0.93443
H         -0.75140       -1.73912       -1.40300
H          0.81758       -1.38452       -2.11368
H         -1.46514       -3.10265        3.00859
H         -1.90348       -5.57045        2.89600
H         -0.24618       -5.93565        2.36218
H          0.20578       -5.84159        4.82946
H         -1.09526       -4.65731        5.08227
H          0.57401       -2.97561        4.44156
H          2.43125       -4.65405        4.41591
H          1.95321       -5.20849        2.81196
H          3.71310       -3.65691        2.72101
H          2.39599       -3.10213        1.96176

--Link1--
%chk=JID_4731.chk
%mem=8GB
%nprocshared=4
# B3LYP/6-311++G(d,p) empiricaldispersion=gd3bj scf=xqc pop=npa geom=check

CID_131149691_JID_4731_Energie_neutraal

0 1

--Link1--
%chk=JID_4731.chk
%mem=8GB
%nprocshared=4
# B3LYP/6-311++G(d,p) empiricaldispersion=gd3bj scf=xqc pop=npa geom=check

CID_131149691_JID_4731_Energie_kation

1 2

--Link1--
%chk=JID_4731.chk
%mem=8GB
%nprocshared=4
# B3LYP/6-311++G(d,p) empiricaldispersion=gd3bj scf=xqc pop=npa geom=check

CID_131149691_JID_4731_Energie_anion

-1 2
