%chk=JID_10455.chk
%mem=8GB
%nprocshared=4
# opt freq B3LYP/6-31G(d) empiricaldispersion=gd3bj scf=xqc

CID_65113741_JID_10455_neutraal

0 1
C          1.04138       -0.01301        0.09010
C          0.59259       -0.28217        1.52350
C          0.93674        0.82850        2.54549
C          0.46817        2.23858        2.11378
C         -1.02845        2.39089        1.88302
C          0.34839        0.48073        3.94863
N          0.86764       -0.76230        4.51203
C          1.85721       -0.98887        5.42120
O          2.33993       -2.12575        5.45578
C          2.36895        0.10509        6.38302
C          3.19211        1.18016        5.69281
N          1.25430        0.68145        7.14318
C          0.91201        0.33867        8.43391
O         -0.29193        0.32186        8.69525
C          1.96202        0.07924        9.40276
C          3.21996        0.64349        9.52085
C          3.95255        0.12375       10.62789
C          3.22376       -0.80517       11.33467
S          1.66607       -1.03837       10.67044
O          2.36591        0.89389        2.68362
H          0.53626        0.85808       -0.33600
H          0.79619       -0.87367       -0.54131
H          2.12182        0.14412        0.02744
H         -0.48769       -0.46954        1.52204
H          1.07758       -1.21723        1.83008
H          0.78256        2.96630        2.87421
H          1.00255        2.54657        1.20623
H         -1.59884        2.19648        2.79552
H         -1.25248        3.41555        1.56826
H         -1.38790        1.71926        1.09857
H          0.54704        1.30118        4.63824
H         -0.73691        0.35065        3.88552
H          0.66919       -1.60741        3.98963
H          3.03000       -0.42807        7.07430
H          2.57748        1.88250        5.12508
H          3.73720        1.77605        6.43262
H          3.92598        0.73625        5.01254
H          0.39982        0.80761        6.61820
H          3.59816        1.40406        8.84957
H          4.95811        0.42275       10.89769
H          3.52485       -1.35276       12.21733
H          2.74913        1.14800        1.82699

--Link1--
%chk=JID_10455.chk
%mem=8GB
%nprocshared=4
# B3LYP/6-311++G(d,p) empiricaldispersion=gd3bj scf=xqc pop=npa geom=check

CID_65113741_JID_10455_Energie_neutraal

0 1

--Link1--
%chk=JID_10455.chk
%mem=8GB
%nprocshared=4
# B3LYP/6-311++G(d,p) empiricaldispersion=gd3bj scf=xqc pop=npa geom=check

CID_65113741_JID_10455_Energie_kation

1 2

--Link1--
%chk=JID_10455.chk
%mem=8GB
%nprocshared=4
# B3LYP/6-311++G(d,p) empiricaldispersion=gd3bj scf=xqc pop=npa geom=check

CID_65113741_JID_10455_Energie_anion

-1 2
