%chk=JID_2347.chk
%mem=8GB
%nprocshared=4
# opt freq B3LYP/6-31G(d) empiricaldispersion=gd3bj scf=xqc

CID_90464537_JID_2347_neutraal

0 1
C         -0.71700        1.22600        0.24100
C         -0.04581        1.46572        1.60391
O         -0.68427        0.70141        2.63588
C         -0.62325       -0.69439        2.31626
C         -1.31007       -0.98451        0.97241
N         -0.69204       -0.20955       -0.12561
C         -1.38441       -0.47136       -1.40160
C         -0.59680       -0.02745       -2.65185
O          0.36390       -0.99787       -3.08647
C          1.56638       -1.01065       -2.33160
C          2.44959        0.18194       -2.63140
O          2.89511        0.94134       -1.77550
H         -1.75507        1.57969        0.28986
H         -0.18977        1.82419       -0.50861
H          1.02115        1.21360        1.57217
H         -0.12992        2.52253        1.87668
H         -1.13181       -1.23998        3.11743
H          0.42453       -1.01890        2.30612
H         -2.37577       -0.73364        1.05236
H         -1.22738       -2.05746        0.76421
H         -1.56170       -1.55013       -1.49870
H         -2.36507        0.02097       -1.39828
H         -1.31392        0.06021       -3.47624
H         -0.13505        0.95915       -2.54598
H          1.38540       -1.09390       -1.25881
H          2.12891       -1.90034       -2.63357
H          2.70263        0.31999       -3.69640

--Link1--
%chk=JID_2347.chk
%mem=8GB
%nprocshared=4
# B3LYP/6-311++G(d,p) empiricaldispersion=gd3bj scf=xqc pop=npa geom=check

CID_90464537_JID_2347_Energie_neutraal

0 1

--Link1--
%chk=JID_2347.chk
%mem=8GB
%nprocshared=4
# B3LYP/6-311++G(d,p) empiricaldispersion=gd3bj scf=xqc pop=npa geom=check

CID_90464537_JID_2347_Energie_kation

1 2

--Link1--
%chk=JID_2347.chk
%mem=8GB
%nprocshared=4
# B3LYP/6-311++G(d,p) empiricaldispersion=gd3bj scf=xqc pop=npa geom=check

CID_90464537_JID_2347_Energie_anion

-1 2
