%chk=JID_5399.chk
%mem=8GB
%nprocshared=4
# opt freq B3LYP/6-31G(d) empiricaldispersion=gd3bj scf=xqc

CID_152074955_JID_5399_neutraal

0 1
C          1.06238        0.05434        0.05618
C          0.33370        1.36711        0.36838
C          0.73164        2.41664       -0.66843
C          0.09802        3.79374       -0.40305
N          0.58115        4.29966        0.91798
C          0.82519        3.39439        1.98919
C          1.34895        3.77604        3.17978
C          1.55489        2.88022        4.29038
C          1.54352        1.55559        4.11271
C          1.27556        0.96869        2.76064
C          0.45251        1.90259        1.82756
N          0.48848        5.62785        1.23882
O          1.37896        6.30298        0.71088
C          0.54483        4.71309       -1.56281
C         -1.44159        3.73729       -0.40038
H          0.84948       -0.26560       -0.97039
H          0.73115       -0.75395        0.71521
H          2.14814        0.16242        0.14395
H         -0.73047        1.14094        0.20873
H          0.44261        2.05930       -1.66617
H          1.82678        2.51366       -0.68053
H          1.63328        4.80915        3.36419
H          1.76408        3.31466        5.26347
H          1.74771        0.88585        4.94218
H          2.24789        0.72369        2.31850
H          0.72570        0.02992        2.89863
H         -0.57783        1.85763        2.22050
H          0.25338        4.29212       -2.53236
H          0.08774        5.70689       -1.49900
H          1.63308        4.84397       -1.57097
H         -1.83635        3.17273        0.45027
H         -1.87286        4.74309       -0.33424
H         -1.81973        3.27440       -1.31861

--Link1--
%chk=JID_5399.chk
%mem=8GB
%nprocshared=4
# B3LYP/6-311++G(d,p) empiricaldispersion=gd3bj scf=xqc pop=npa geom=check

CID_152074955_JID_5399_Energie_neutraal

0 1

--Link1--
%chk=JID_5399.chk
%mem=8GB
%nprocshared=4
# B3LYP/6-311++G(d,p) empiricaldispersion=gd3bj scf=xqc pop=npa geom=check

CID_152074955_JID_5399_Energie_kation

1 2

--Link1--
%chk=JID_5399.chk
%mem=8GB
%nprocshared=4
# B3LYP/6-311++G(d,p) empiricaldispersion=gd3bj scf=xqc pop=npa geom=check

CID_152074955_JID_5399_Energie_anion

-1 2
