%chk=JID_5700.chk
%mem=8GB
%nprocshared=4
# opt freq B3LYP/6-31G(d) empiricaldispersion=gd3bj scf=xqc

CID_115758757_JID_5700_neutraal

0 1
C          0.97279       -0.07148       -0.06443
C          0.14392       -0.35086        1.17705
C         -0.26540        0.87545        2.01182
C         -0.92029        2.04523        1.25208
C          0.06062        2.97822        0.53962
C         -0.69453        4.28757        0.36462
C         -1.93152        4.16932        1.24083
N         -1.76349        2.95742        2.04773
C         -1.39851        3.23336        3.44760
C         -0.05570        3.90928        3.78769
O         -0.05910        5.28032        3.38757
C          1.22387        5.90801        3.46450
C          1.74913        6.05007        4.89529
O          2.36950        4.84378        5.34256
O         -1.00834       -1.10286        0.79883
H          0.37237        0.39363       -0.85216
H          1.33839       -1.01411       -0.48767
H          1.83763        0.55844        0.16219
H          0.72766       -1.00894        1.83157
H         -0.97780        0.50818        2.76187
H          0.61677        1.23440        2.55406
H         -1.58712        1.61917        0.49084
H          0.96834        3.14679        1.12825
H          0.37277        2.59526       -0.43548
H         -0.06587        5.13418        0.65819
H         -0.97985        4.43469       -0.68306
H         -2.12375        5.07754        1.82181
H         -2.81076        4.03141        0.59897
H         -2.20079        3.85231        3.87197
H         -1.45129        2.29192        4.00642
H          0.06158        3.86908        4.87605
H          0.78576        3.37673        3.33809
H          1.93006        5.36232        2.82860
H          1.09209        6.90827        3.03947
H          2.50180        6.84268        4.94898
H          0.93672        6.28525        5.58923
H          3.16651        4.70700        4.80238
H         -1.60074       -0.52928        0.28475

--Link1--
%chk=JID_5700.chk
%mem=8GB
%nprocshared=4
# B3LYP/6-311++G(d,p) empiricaldispersion=gd3bj scf=xqc pop=npa geom=check

CID_115758757_JID_5700_Energie_neutraal

0 1

--Link1--
%chk=JID_5700.chk
%mem=8GB
%nprocshared=4
# B3LYP/6-311++G(d,p) empiricaldispersion=gd3bj scf=xqc pop=npa geom=check

CID_115758757_JID_5700_Energie_kation

1 2

--Link1--
%chk=JID_5700.chk
%mem=8GB
%nprocshared=4
# B3LYP/6-311++G(d,p) empiricaldispersion=gd3bj scf=xqc pop=npa geom=check

CID_115758757_JID_5700_Energie_anion

-1 2
