%chk=JID_8229.chk
%mem=8GB
%nprocshared=4
# opt freq B3LYP/6-31G(d) empiricaldispersion=gd3bj scf=xqc

CID_28378495_JID_8229_neutraal

0 1
C         -1.50500        0.02200       -0.20100
C         -0.78555        1.36007       -0.00977
C          0.63610        1.30039       -0.56659
N          1.35373        0.18196        0.03801
C          0.74719       -1.12155       -0.22214
C         -0.67675       -1.15113        0.33442
C          2.26961        0.44762        1.04848
O          2.60871        1.60165        1.33337
C          2.92099       -0.73064        1.79506
O          2.08714       -1.66898        2.45039
C          1.40876       -1.27919        3.57003
C          0.66718       -2.29762        4.17512
C         -0.11083       -2.03944        5.30288
C         -0.15630       -0.75221        5.83225
C          0.58851        0.28078        5.24756
C          1.37457        0.00470        4.11487
C          0.50867        1.68103        5.79939
N         -0.74625        2.31985        5.42169
H         -2.47903        0.04840        0.30002
H         -1.69846       -0.13318       -1.26969
H         -1.34818        2.15955       -0.50383
H         -0.75032        1.59822        1.06072
H          0.61810        1.14058       -1.65123
H          1.14916        2.24996       -0.38552
H          1.34173       -1.93885        0.18766
H          0.72751       -1.26236       -1.30976
H         -0.64943       -1.09111        1.42797
H         -1.16098       -2.09835        0.07336
H          3.50228       -1.28485        1.04769
H          3.66396       -0.33683        2.50111
H          0.68914       -3.30143        3.75828
H         -0.69006       -2.83701        5.75973
H         -0.78474       -0.54661        6.69637
H          1.93812        0.82190        3.67703
H          0.59406        1.64964        6.89148
H          1.35000        2.28224        5.43577
H         -0.71603        3.29879        5.69830
H         -0.81994        2.31353        4.40483

--Link1--
%chk=JID_8229.chk
%mem=8GB
%nprocshared=4
# B3LYP/6-311++G(d,p) empiricaldispersion=gd3bj scf=xqc pop=npa geom=check

CID_28378495_JID_8229_Energie_neutraal

0 1

--Link1--
%chk=JID_8229.chk
%mem=8GB
%nprocshared=4
# B3LYP/6-311++G(d,p) empiricaldispersion=gd3bj scf=xqc pop=npa geom=check

CID_28378495_JID_8229_Energie_kation

1 2

--Link1--
%chk=JID_8229.chk
%mem=8GB
%nprocshared=4
# B3LYP/6-311++G(d,p) empiricaldispersion=gd3bj scf=xqc pop=npa geom=check

CID_28378495_JID_8229_Energie_anion

-1 2
