%chk=JID_8927.chk
%mem=8GB
%nprocshared=4
# opt freq B3LYP/6-31G(d) empiricaldispersion=gd3bj scf=xqc

CID_84164875_JID_8927_neutraal

0 1
C          2.49200        0.00400       -0.01400
C          1.01520        0.03539       -0.28157
C          0.21628       -1.09307       -0.00483
C         -1.16258       -1.14453       -0.28421
C         -1.70414        0.02609       -0.84931
C         -0.92821        1.15772       -1.13377
C          0.43147        1.15943       -0.85936
N         -1.95642       -2.25979        0.00613
C         -3.35140       -2.29949       -0.52258
C         -4.19499       -3.53584       -0.16766
O         -5.33774       -3.69103       -0.59952
N         -3.65220       -4.49445        0.64293
C         -2.41560       -4.26286        1.34671
C         -1.37192       -3.54717        0.46247
C         -0.96942       -4.42961       -0.73171
C          0.51480       -4.41750       -0.94202
O          1.37218       -4.44824       -0.07457
O          0.85510       -4.45169       -2.24417
H          2.72668       -0.66799        0.81815
H          3.02551       -0.33900       -0.90578
H          2.85947        0.99868        0.25956
H          0.72544       -1.93601        0.44951
H         -2.76048        0.10224       -1.08775
H         -1.39570        2.03604       -1.57113
H          1.02704        2.03850       -1.09115
H         -3.32377       -2.24561       -1.61776
H         -3.91587       -1.44910       -0.12254
H         -4.28846       -5.22752        0.93158
H         -2.04202       -5.22922        1.70039
H         -2.65513       -3.64745        2.22212
H         -0.52878       -3.37160        1.13756
H         -1.23687       -5.48013       -0.56620
H         -1.46466       -4.10437       -1.65358
H          1.83487       -4.44811       -2.24601

--Link1--
%chk=JID_8927.chk
%mem=8GB
%nprocshared=4
# B3LYP/6-311++G(d,p) empiricaldispersion=gd3bj scf=xqc pop=npa geom=check

CID_84164875_JID_8927_Energie_neutraal

0 1

--Link1--
%chk=JID_8927.chk
%mem=8GB
%nprocshared=4
# B3LYP/6-311++G(d,p) empiricaldispersion=gd3bj scf=xqc pop=npa geom=check

CID_84164875_JID_8927_Energie_kation

1 2

--Link1--
%chk=JID_8927.chk
%mem=8GB
%nprocshared=4
# B3LYP/6-311++G(d,p) empiricaldispersion=gd3bj scf=xqc pop=npa geom=check

CID_84164875_JID_8927_Energie_anion

-1 2
