%chk=JID_6687.chk
%mem=8GB
%nprocshared=4
# opt freq B3LYP/6-31G(d) empiricaldispersion=gd3bj scf=xqc

CID_71979982_JID_6687_neutraal

0 1
C          0.93620        0.04564        0.06202
C          1.09780       -1.39961        0.50588
C          1.87013       -1.55767        1.81331
C          1.02217       -1.24269        3.02785
O          0.29420       -2.09434        3.53674
N          1.02470        0.01156        3.56179
C          1.87962        1.14330        3.24006
C          1.13723        2.49838        3.33945
C          0.99002        2.93764        4.79726
N          1.88256        3.54946        2.62483
C          1.61393        3.73112        1.26122
C          2.67482        3.87454        0.35740
C          2.43948        4.06762       -1.00781
C          1.13505        4.14232       -1.48742
C          0.06895        4.03333       -0.60035
C          0.30955        3.83569        0.76277
H          0.32325        0.61158        0.76835
H          0.43607        0.08461       -0.91124
H          1.90766        0.53766       -0.04337
H          0.10707       -1.86106        0.59174
H          1.63448       -1.94123       -0.28281
H          2.17469       -2.60720        1.91781
H          2.80040       -0.98436        1.81048
H          0.45929        0.06047        4.40238
H          2.72837        1.11230        3.93359
H          2.29337        1.01934        2.23812
H          0.12541        2.37715        2.93717
H          1.96684        3.06999        5.27545
H          0.46090        3.89526        4.85814
H          0.42187        2.20342        5.37700
H          2.88002        3.52714        2.82182
H          3.70320        3.82847        0.70493
H          3.27630        4.16608       -1.69409
H          0.94936        4.29976       -2.54645
H         -0.95244        4.11437       -0.96278
H         -0.54330        3.79553        1.43427

--Link1--
%chk=JID_6687.chk
%mem=8GB
%nprocshared=4
# B3LYP/6-311++G(d,p) empiricaldispersion=gd3bj scf=xqc pop=npa geom=check

CID_71979982_JID_6687_Energie_neutraal

0 1

--Link1--
%chk=JID_6687.chk
%mem=8GB
%nprocshared=4
# B3LYP/6-311++G(d,p) empiricaldispersion=gd3bj scf=xqc pop=npa geom=check

CID_71979982_JID_6687_Energie_kation

1 2

--Link1--
%chk=JID_6687.chk
%mem=8GB
%nprocshared=4
# B3LYP/6-311++G(d,p) empiricaldispersion=gd3bj scf=xqc pop=npa geom=check

CID_71979982_JID_6687_Energie_anion

-1 2
