%chk=JID_6901.chk
%mem=8GB
%nprocshared=4
# opt freq B3LYP/6-31G(d) empiricaldispersion=gd3bj scf=xqc

CID_82613771_JID_6901_neutraal

0 1
C          0.99208        0.09958       -0.00449
C          0.58086       -0.45647        1.30382
C          0.58994       -1.75277        1.77726
N          0.11820       -1.82178        3.06123
C         -0.18253       -0.58280        3.38687
N          0.08090        0.29810        2.34576
C         -0.15198        1.66713        2.43826
C         -0.65341        2.17905        3.57575
C         -0.94954        1.29547        4.70622
C         -0.71259       -0.03431        4.58848
C         -1.52030        1.85705        6.00871
C         -2.93603        2.44598        5.87756
C         -2.96626        3.93253        5.53599
N         -2.12085        4.70801        6.43913
C         -0.72685        4.27843        6.37649
C         -0.57318        2.80961        6.75993
H          0.15092        0.59837       -0.49633
H          1.34806       -0.69251       -0.67127
H          1.80391        0.82332        0.11944
H          0.91424       -2.64434        1.25529
H          0.08321        2.27698        1.57615
H         -0.83519        3.24217        3.64771
H         -0.91551       -0.72880        5.39660
H         -1.63597        0.98925        6.67699
H         -3.52514        1.88460        5.14199
H         -3.44832        2.31183        6.84079
H         -2.67888        4.10780        4.49478
H         -3.99735        4.29196        5.63136
H         -2.18301        5.69702        6.19768
H         -0.14478        4.88554        7.07941
H         -0.30777        4.47723        5.38547
H         -0.78630        2.71922        7.83450
H          0.47165        2.50072        6.63278

--Link1--
%chk=JID_6901.chk
%mem=8GB
%nprocshared=4
# B3LYP/6-311++G(d,p) empiricaldispersion=gd3bj scf=xqc pop=npa geom=check

CID_82613771_JID_6901_Energie_neutraal

0 1

--Link1--
%chk=JID_6901.chk
%mem=8GB
%nprocshared=4
# B3LYP/6-311++G(d,p) empiricaldispersion=gd3bj scf=xqc pop=npa geom=check

CID_82613771_JID_6901_Energie_kation

1 2

--Link1--
%chk=JID_6901.chk
%mem=8GB
%nprocshared=4
# B3LYP/6-311++G(d,p) empiricaldispersion=gd3bj scf=xqc pop=npa geom=check

CID_82613771_JID_6901_Energie_anion

-1 2
