%chk=JID_2010.chk
%mem=8GB
%nprocshared=4
# opt freq B3LYP/6-31G(d) empiricaldispersion=gd3bj scf=xqc

CID_82490458_JID_2010_neutraal

0 1
C          1.85400        1.50000       -0.02200
C          0.55473        0.72887        0.03012
C         -0.68292        1.41927        0.06466
C         -1.86647        0.67047        0.03169
C         -1.84648       -0.72578        0.02529
C         -0.63600       -1.41520        0.05315
C          0.57580       -0.69383        0.08177
C          1.88871       -1.44195        0.10827
O         -0.52756       -2.78230        0.04753
C         -1.72966       -3.53991        0.01178
N         -0.69889        2.84587        0.04112
N         -1.93167        3.52585        0.08723
H          2.22987        1.66491        0.99236
H          2.61207        0.96840       -0.60573
H          1.73721        2.46827       -0.51867
H         -2.83270        1.16652        0.03409
H         -2.80117       -1.23952        0.00613
H          1.78382       -2.45392        0.51162
H          2.29793       -1.51273       -0.90425
H          2.61200       -0.94016        0.75936
H         -2.33938       -3.35590        0.90243
H         -2.29455       -3.34194       -0.90508
H         -1.45617       -4.59948        0.01031
H          0.00576        3.18948        0.70170
H         -1.77375        4.53473        0.02270
H         -2.46641        3.30105       -0.75689

--Link1--
%chk=JID_2010.chk
%mem=8GB
%nprocshared=4
# B3LYP/6-311++G(d,p) empiricaldispersion=gd3bj scf=xqc pop=npa geom=check

CID_82490458_JID_2010_Energie_neutraal

0 1

--Link1--
%chk=JID_2010.chk
%mem=8GB
%nprocshared=4
# B3LYP/6-311++G(d,p) empiricaldispersion=gd3bj scf=xqc pop=npa geom=check

CID_82490458_JID_2010_Energie_kation

1 2

--Link1--
%chk=JID_2010.chk
%mem=8GB
%nprocshared=4
# B3LYP/6-311++G(d,p) empiricaldispersion=gd3bj scf=xqc pop=npa geom=check

CID_82490458_JID_2010_Energie_anion

-1 2
