%chk=JID_6043.chk
%mem=8GB
%nprocshared=4
# opt freq B3LYP/6-31G(d) empiricaldispersion=gd3bj scf=xqc

CID_61307703_JID_6043_neutraal

0 1
C          0.95316       -0.05626        0.06812
C          0.09920       -1.26308       -0.36083
C          0.48480       -2.49546        0.45886
C          0.73139       -3.71450       -0.19149
C          1.09249       -4.85163        0.53484
C          1.21142       -4.78756        1.92086
C          0.96145       -3.58850        2.58269
C          0.59510       -2.45152        1.85880
C         -1.43537       -0.97589       -0.28546
C         -1.73785        0.37360       -0.84042
N         -1.98275        1.42103       -1.27830
N         -2.18569       -2.04028       -1.00531
C         -3.62546       -1.96002       -0.76735
C         -4.35022       -2.15932       -2.06534
C         -5.48211       -1.23223       -2.43945
C         -4.20041       -1.19179       -3.21877
H          0.64388        0.34113        1.04095
H          0.88614        0.75749       -0.66167
H          2.01278       -0.32912        0.13826
H          0.36890       -1.45430       -1.41036
H          0.63806       -3.79063       -1.27254
H          1.27920       -5.78883        0.01711
H          1.49504       -5.67212        2.48480
H          1.05185       -3.53739        3.66473
H          0.40324       -1.53229        2.40644
H         -1.73841       -0.99134        0.77027
H         -1.99123       -1.95697       -2.00273
H         -3.91210       -2.75496       -0.06983
H         -3.93190       -1.01362       -0.30765
H         -4.45601       -3.21107       -2.31048
H         -6.35505       -1.65675       -2.92109
H         -5.70139       -0.38163       -1.80238
H         -3.57524       -0.31371       -3.10503
H         -4.20671       -1.59641       -4.22486

--Link1--
%chk=JID_6043.chk
%mem=8GB
%nprocshared=4
# B3LYP/6-311++G(d,p) empiricaldispersion=gd3bj scf=xqc pop=npa geom=check

CID_61307703_JID_6043_Energie_neutraal

0 1

--Link1--
%chk=JID_6043.chk
%mem=8GB
%nprocshared=4
# B3LYP/6-311++G(d,p) empiricaldispersion=gd3bj scf=xqc pop=npa geom=check

CID_61307703_JID_6043_Energie_kation

1 2

--Link1--
%chk=JID_6043.chk
%mem=8GB
%nprocshared=4
# B3LYP/6-311++G(d,p) empiricaldispersion=gd3bj scf=xqc pop=npa geom=check

CID_61307703_JID_6043_Energie_anion

-1 2
