%chk=JID_5015.chk
%mem=8GB
%nprocshared=4
# opt freq B3LYP/6-31G(d) empiricaldispersion=gd3bj scf=xqc

CID_67487855_JID_5015_neutraal

0 1
C          1.08048       -0.02347        0.05452
C          0.65387       -0.44405       -1.32581
C          0.61353       -1.80058       -1.75920
C          0.21758       -2.08362       -3.07195
C         -0.16553       -1.07179       -3.96877
C         -0.14276        0.24933       -3.52852
C          0.25873        0.55825       -2.23530
N          0.28955       -3.45568       -3.23787
C          0.72135       -4.07652       -2.07651
C          0.87532       -3.06403       -1.14482
N          1.19845       -3.26332        0.15641
C          0.93632       -5.50416       -1.95207
O          0.46482       -6.35922       -2.69556
N          1.77939       -5.88125       -0.94552
C         -0.00997       -4.15929       -4.47028
H          0.31168       -0.29815        0.78312
H          1.23702        1.05861        0.11738
H          2.02752       -0.50166        0.32290
H         -0.48075       -1.29412       -4.98278
H         -0.43959        1.04630       -4.20600
H          0.26760        1.60280       -1.92902
H          0.92278       -4.14900        0.57839
H          1.03379       -2.50375        0.81043
H          2.37857       -5.17665       -0.53120
H          2.09112       -6.84137       -0.95562
H         -0.91366       -4.75357       -4.31493
H         -0.17526       -3.45488       -5.28625
H          0.84221       -4.79277       -4.72923

--Link1--
%chk=JID_5015.chk
%mem=8GB
%nprocshared=4
# B3LYP/6-311++G(d,p) empiricaldispersion=gd3bj scf=xqc pop=npa geom=check

CID_67487855_JID_5015_Energie_neutraal

0 1

--Link1--
%chk=JID_5015.chk
%mem=8GB
%nprocshared=4
# B3LYP/6-311++G(d,p) empiricaldispersion=gd3bj scf=xqc pop=npa geom=check

CID_67487855_JID_5015_Energie_kation

1 2

--Link1--
%chk=JID_5015.chk
%mem=8GB
%nprocshared=4
# B3LYP/6-311++G(d,p) empiricaldispersion=gd3bj scf=xqc pop=npa geom=check

CID_67487855_JID_5015_Energie_anion

-1 2
