%chk=JID_3029.chk
%mem=8GB
%nprocshared=4
# opt freq B3LYP/6-31G(d) empiricaldispersion=gd3bj scf=xqc

CID_130797566_JID_3029_neutraal

0 1
C          0.97845       -0.04644       -0.08590
C          0.40763        1.36876        0.08838
C          1.01916        2.07344        1.31313
C          0.85015        3.57166        1.05416
C          0.55301        3.73867       -0.43948
C          0.73743        2.35177       -1.07929
C          2.09381        2.17104       -1.73918
C          2.40955        1.63995       -2.98307
C          3.81411        1.65459       -3.20648
N          4.56876        2.15090       -2.23421
S          3.57840        2.64903       -1.00713
O         -0.22352        2.23018       -2.13230
C         -1.11963        1.22197        0.30537
H          0.60268       -0.51357       -1.00272
H          0.69389       -0.68831        0.75598
H          2.07202       -0.05128       -0.12841
H          0.54151        1.77844        2.25420
H          2.08326        1.83549        1.42030
H          1.75133        4.12020        1.34792
H          0.02128        3.97481        1.64705
H          1.18368        4.51362       -0.88964
H         -0.48002        4.08914       -0.56368
H          1.68285        1.27226       -3.69453
H          4.31995        1.29871       -4.09501
H         -0.28809        1.28764       -2.35854
H         -1.59538        0.70607       -0.53588
H         -1.33072        0.63407        1.20646
H         -1.61619        2.19009        0.42688

--Link1--
%chk=JID_3029.chk
%mem=8GB
%nprocshared=4
# B3LYP/6-311++G(d,p) empiricaldispersion=gd3bj scf=xqc pop=npa geom=check

CID_130797566_JID_3029_Energie_neutraal

0 1

--Link1--
%chk=JID_3029.chk
%mem=8GB
%nprocshared=4
# B3LYP/6-311++G(d,p) empiricaldispersion=gd3bj scf=xqc pop=npa geom=check

CID_130797566_JID_3029_Energie_kation

1 2

--Link1--
%chk=JID_3029.chk
%mem=8GB
%nprocshared=4
# B3LYP/6-311++G(d,p) empiricaldispersion=gd3bj scf=xqc pop=npa geom=check

CID_130797566_JID_3029_Energie_anion

-1 2
