%chk=JID_4211.chk
%mem=8GB
%nprocshared=4
# opt freq B3LYP/6-31G(d) empiricaldispersion=gd3bj scf=xqc

CID_13408905_JID_4211_neutraal

0 1
C          0.95634        0.01668        0.08841
C          0.66750        0.48829       -1.33253
N          1.45960       -0.18752       -2.35210
C          0.91563       -0.11436       -3.71019
C          0.64307        1.28181       -4.25759
C          2.90940       -0.25652       -2.23394
C          3.75657        0.99841       -2.50396
C          3.68344        2.08695       -1.45676
C          2.95254        3.25588       -1.74493
C          2.84211        4.27618       -0.81124
C          3.46777        4.13471        0.41305
C          4.20172        2.98649        0.67111
N          4.31968        1.99533       -0.24853
C          5.15755        0.83103        0.10855
H          0.86439       -1.07145        0.16993
H          0.23737        0.46521        0.78216
H          1.95549        0.30790        0.42209
H         -0.39605        0.28980       -1.51784
H          0.79029        1.57330       -1.38506
H          1.56653       -0.65140       -4.41118
H         -0.03076       -0.67031       -3.72241
H          1.55878        1.86627       -4.36180
H          0.19229        1.20441       -5.25295
H         -0.05636        1.83913       -3.62725
H          3.16749       -0.67412       -1.25638
H          3.25781       -1.02775       -2.93509
H          4.80462        0.69437       -2.60836
H          3.50981        1.40957       -3.48869
H          2.45133        3.36838       -2.70538
H          2.26678        5.17231       -1.03903
H          3.38990        4.91882        1.16312
H          4.70745        2.85532        1.62459
H          4.49491        0.00490        0.37033
H          5.80975        0.58307       -0.72987
H          5.78751        1.07896        0.96742

--Link1--
%chk=JID_4211.chk
%mem=8GB
%nprocshared=4
# B3LYP/6-311++G(d,p) empiricaldispersion=gd3bj scf=xqc pop=npa geom=check

CID_13408905_JID_4211_Energie_neutraal

0 1

--Link1--
%chk=JID_4211.chk
%mem=8GB
%nprocshared=4
# B3LYP/6-311++G(d,p) empiricaldispersion=gd3bj scf=xqc pop=npa geom=check

CID_13408905_JID_4211_Energie_kation

1 2

--Link1--
%chk=JID_4211.chk
%mem=8GB
%nprocshared=4
# B3LYP/6-311++G(d,p) empiricaldispersion=gd3bj scf=xqc pop=npa geom=check

CID_13408905_JID_4211_Energie_anion

-1 2
