%chk=JID_7288.chk
%mem=8GB
%nprocshared=4
# opt freq B3LYP/6-31G(d) empiricaldispersion=gd3bj scf=xqc

CID_66358845_JID_7288_neutraal

0 1
C          0.96292       -0.03387       -0.08647
C         -0.00847       -1.05151       -0.69801
C          0.67030       -2.42686       -0.73094
C         -1.28349       -1.14135        0.14600
O         -0.41235       -0.78896       -2.04854
C         -0.19256        0.48930       -2.69183
C         -1.04958        1.68109       -2.18596
C         -2.09717        1.29076       -3.24291
C         -0.92412        0.66714       -4.10067
C         -1.42693       -0.62036       -4.78950
C         -0.29524       -1.57040       -5.17384
C          0.28155       -1.34323       -6.56702
C          0.58059        0.10055       -6.95384
C          1.00263        1.00376       -5.79763
C         -0.19267        1.62202       -5.07227
N         -2.65728        2.49121       -3.87220
C         -3.79067        2.97030       -3.08918
H          1.26642       -0.33293        0.92296
H          0.51794        0.96259       -0.01390
H          1.86759        0.06247       -0.69672
H          0.96137       -2.76104        0.27045
H          0.00670       -3.18186       -1.16857
H          1.56646       -2.40065       -1.36174
H         -1.80939       -0.18179        0.17163
H         -1.98593       -1.86499       -0.28389
H         -1.06665       -1.43907        1.17705
H          0.88048        0.70653       -2.73836
H         -1.40981        1.62991       -1.15610
H         -0.55405        2.65117       -2.31531
H         -2.83586        0.56292       -2.88367
H         -2.08322       -1.16808       -4.10060
H         -2.04651       -0.37392       -5.66045
H         -0.67934       -2.59837       -5.14722
H          0.51431       -1.53634       -4.43649
H         -0.40119       -1.76556       -7.31558
H          1.20579       -1.92983       -6.64762
H         -0.29228        0.52843       -7.46311
H          1.37995        0.08702       -7.70583
H          1.58057        1.83167       -6.22878
H          1.67457        0.48330       -5.10726
H         -0.89880        2.00684       -5.81907
H          0.17653        2.49829       -4.52497
H         -2.00100        3.25762       -4.00770
H         -3.48451        3.27649       -2.08359
H         -4.23341        3.83956       -3.58539
H         -4.57129        2.20695       -3.00819

--Link1--
%chk=JID_7288.chk
%mem=8GB
%nprocshared=4
# B3LYP/6-311++G(d,p) empiricaldispersion=gd3bj scf=xqc pop=npa geom=check

CID_66358845_JID_7288_Energie_neutraal

0 1

--Link1--
%chk=JID_7288.chk
%mem=8GB
%nprocshared=4
# B3LYP/6-311++G(d,p) empiricaldispersion=gd3bj scf=xqc pop=npa geom=check

CID_66358845_JID_7288_Energie_kation

1 2

--Link1--
%chk=JID_7288.chk
%mem=8GB
%nprocshared=4
# B3LYP/6-311++G(d,p) empiricaldispersion=gd3bj scf=xqc pop=npa geom=check

CID_66358845_JID_7288_Energie_anion

-1 2
