%chk=JID_9675.chk
%mem=8GB
%nprocshared=4
# opt freq B3LYP/6-31G(d) empiricaldispersion=gd3bj scf=xqc

CID_55128776_JID_9675_neutraal

0 1
C          1.05236        0.05048       -0.06864
C          1.36140        0.73363       -1.39438
C          1.59760       -0.25966       -2.52919
N          0.39327       -0.98598       -2.88292
C         -0.30875       -0.97037       -4.05451
O         -1.13455       -1.86594       -4.24442
C         -0.00471        0.07670       -5.13134
N          0.00061        1.43676       -4.61066
C          0.23777        2.60341       -5.27103
O         -0.00507        3.64803       -4.65464
C          0.86762        2.66800       -6.66631
C          2.41243        2.69593       -6.57800
N          3.07413        1.50682       -6.02917
C          0.21458        1.78419       -7.72153
C         -1.14069        1.99895       -8.03818
C         -1.78635        1.22379       -9.00311
C         -1.08796        0.22464       -9.67390
C          0.25552        0.00443       -9.38247
C          0.90342        0.78041       -8.41744
H          0.12257       -0.52401       -0.12341
H          0.93858        0.79834        0.72258
H          1.86097       -0.62826        0.22063
H          0.54090        1.41436       -1.64684
H          2.26245        1.34512       -1.26841
H          1.99589        0.25623       -3.40362
H          2.34239       -1.00606       -2.23170
H          0.11821       -1.75440       -2.28140
H          0.95438       -0.15630       -5.59661
H         -0.79803        0.01207       -5.88105
H         -0.49270        1.58589       -3.73803
H          0.61791        3.68371       -7.01822
H          2.82421        2.88073       -7.57764
H          2.71388        3.54932       -5.95740
H          4.08489        1.64059       -6.08475
H          2.86329        1.44916       -5.03340
H         -1.70706        2.77801       -7.52958
H         -2.83429        1.40148       -9.23057
H         -1.58903       -0.38076      -10.42447
H          0.80359       -0.77420       -9.90710
H          1.95221        0.57544       -8.21692

--Link1--
%chk=JID_9675.chk
%mem=8GB
%nprocshared=4
# B3LYP/6-311++G(d,p) empiricaldispersion=gd3bj scf=xqc pop=npa geom=check

CID_55128776_JID_9675_Energie_neutraal

0 1

--Link1--
%chk=JID_9675.chk
%mem=8GB
%nprocshared=4
# B3LYP/6-311++G(d,p) empiricaldispersion=gd3bj scf=xqc pop=npa geom=check

CID_55128776_JID_9675_Energie_kation

1 2

--Link1--
%chk=JID_9675.chk
%mem=8GB
%nprocshared=4
# B3LYP/6-311++G(d,p) empiricaldispersion=gd3bj scf=xqc pop=npa geom=check

CID_55128776_JID_9675_Energie_anion

-1 2
