%chk=JID_3457.chk
%mem=8GB
%nprocshared=4
# opt freq B3LYP/6-31G(d) empiricaldispersion=gd3bj scf=xqc

CID_80014025_JID_3457_neutraal

0 1
C          1.26600       -0.09700        0.26800
C          0.41987        0.70202       -0.70451
C         -1.00184        0.40623       -0.24833
C         -0.98570       -1.07992        0.19766
C          0.51774       -1.41842        0.39591
C         -1.55940       -1.95049       -0.94942
O         -1.61886       -3.32109       -0.55919
C         -1.15007       -4.29319       -1.51666
C          0.31222       -4.76919       -1.33118
C         -0.16626       -6.18509       -1.69671
C         -1.57036       -5.75626       -1.23312
C         -1.83125       -1.33238        1.47210
S         -1.35307       -0.40040        2.97029
H          1.31245        0.40992        1.23857
H          2.29029       -0.23566       -0.09012
H          0.64993        1.77091       -0.67468
H          0.57407        0.34577       -1.72964
H         -1.72335        0.60519       -1.04813
H         -1.25606        1.08062        0.57583
H          0.87615       -2.08804       -0.39451
H          0.73743       -1.91671        1.34467
H         -2.58215       -1.63915       -1.19220
H         -0.95798       -1.83298       -1.85976
H         -1.38549       -3.99897       -2.54834
H          1.04440       -4.33016       -2.01387
H          0.68394       -4.67900       -0.30380
H          0.29097       -7.00228       -1.13315
H         -0.10300       -6.40777       -2.76767
H         -1.77757       -5.96661       -0.17787
H         -2.39689       -6.13543       -1.84045
H         -2.87903       -1.08351        1.26883
H         -1.79902       -2.39105        1.75112
H         -0.19378       -1.03668        3.19023

--Link1--
%chk=JID_3457.chk
%mem=8GB
%nprocshared=4
# B3LYP/6-311++G(d,p) empiricaldispersion=gd3bj scf=xqc pop=npa geom=check

CID_80014025_JID_3457_Energie_neutraal

0 1

--Link1--
%chk=JID_3457.chk
%mem=8GB
%nprocshared=4
# B3LYP/6-311++G(d,p) empiricaldispersion=gd3bj scf=xqc pop=npa geom=check

CID_80014025_JID_3457_Energie_kation

1 2

--Link1--
%chk=JID_3457.chk
%mem=8GB
%nprocshared=4
# B3LYP/6-311++G(d,p) empiricaldispersion=gd3bj scf=xqc pop=npa geom=check

CID_80014025_JID_3457_Energie_anion

-1 2
