%chk=JID_9451.chk
%mem=8GB
%nprocshared=4
# opt freq B3LYP/6-31G(d) empiricaldispersion=gd3bj scf=xqc

CID_54458195_JID_9451_neutraal

0 1
C          0.92547       -0.06520        0.01394
C          0.17021       -0.84426       -1.05416
C          0.20608       -2.36243       -0.82433
C         -0.54789       -2.79790        0.42778
C         -0.19625       -3.17293       -2.06174
O          0.45891       -4.15880       -2.40963
N         -1.26733       -2.80856       -2.83935
C         -2.50688       -2.38561       -2.31672
C         -3.05081       -1.18414       -2.77263
C         -4.28954       -0.75270       -2.32332
C         -4.99964       -1.53531       -1.40894
C         -4.47366       -2.74836       -0.94993
C         -3.24007       -3.19185       -1.44416
N         -5.15007       -3.59441       -0.05156
C         -6.25144       -3.37998        0.70800
O         -6.99663       -4.31822        0.98846
N         -6.50788       -2.15743        1.23237
C         -5.50673       -1.23796        1.73258
O         -2.37652       -0.40074       -3.66549
H          0.46895       -0.19177        1.00010
H          0.91452        1.00354       -0.22318
H          1.96991       -0.38749        0.07128
H         -0.86094       -0.47873       -1.07141
H          0.60465       -0.60999       -2.03374
H          1.26157       -2.63079       -0.66654
H         -1.51451       -2.29498        0.51937
H         -0.72052       -3.87921        0.43372
H          0.02760       -2.55234        1.32683
H         -1.37737       -3.53802       -3.54201
H         -4.70788        0.18117       -2.68796
H         -5.98443       -1.19646       -1.09945
H         -2.83857       -4.15083       -1.12703
H         -4.91976       -4.57926       -0.10476
H         -7.37463       -2.17401        1.75545
H         -5.64996       -0.26878        1.24950
H         -5.67021       -1.12020        2.80777
H         -4.49039       -1.60532        1.57718
H         -1.53372       -0.85677       -3.84731

--Link1--
%chk=JID_9451.chk
%mem=8GB
%nprocshared=4
# B3LYP/6-311++G(d,p) empiricaldispersion=gd3bj scf=xqc pop=npa geom=check

CID_54458195_JID_9451_Energie_neutraal

0 1

--Link1--
%chk=JID_9451.chk
%mem=8GB
%nprocshared=4
# B3LYP/6-311++G(d,p) empiricaldispersion=gd3bj scf=xqc pop=npa geom=check

CID_54458195_JID_9451_Energie_kation

1 2

--Link1--
%chk=JID_9451.chk
%mem=8GB
%nprocshared=4
# B3LYP/6-311++G(d,p) empiricaldispersion=gd3bj scf=xqc pop=npa geom=check

CID_54458195_JID_9451_Energie_anion

-1 2
