%chk=JID_10354.chk
%mem=8GB
%nprocshared=4
# opt freq B3LYP/6-31G(d) empiricaldispersion=gd3bj scf=xqc

CID_66241466_JID_10354_neutraal

0 1
C          0.31400       -1.18400        0.12900
C         -1.03583       -0.49706        0.09335
C         -0.64554        0.94379        0.35269
C          0.68570        1.06593       -0.37466
O          1.28148       -0.24469       -0.36927
N         -1.65474        1.91153       -0.07374
S         -1.65405        3.46337        0.50672
O         -0.30269        3.77848        0.91462
O         -2.34621        4.27208       -0.47091
C         -2.66550        3.35791        1.97406
C         -4.10083        2.93388        1.70554
C         -4.29161        1.44106        1.59920
C         -4.15997        0.62611        2.72263
C         -4.38001       -0.74265        2.59252
C         -4.73277       -1.26083        1.35325
C         -4.84546       -0.38431        0.28882
N         -4.62271        0.94597        0.38307
C         -1.69758       -0.84017       -1.21844
O         -2.16310       -1.93771       -1.49280
O         -1.74031        0.14565       -2.13190
H          0.59903       -1.42597        1.15918
H          0.37508       -2.10134       -0.46464
H         -1.70216       -0.86804        0.87862
H         -0.47404        1.05183        1.43226
H          0.57164        1.38238       -1.41684
H          1.36742        1.76484        0.11876
H         -2.03143        1.81333       -1.02376
H         -2.14995        2.70963        2.68946
H         -2.66284        4.37394        2.38619
H         -4.73237        3.28132        2.53346
H         -4.49316        3.41858        0.80406
H         -3.90647        1.04459        3.69150
H         -4.28861       -1.39811        3.45422
H         -4.91669       -2.32090        1.21762
H         -5.11968       -0.74065       -0.70035
H         -2.17063       -0.26595       -2.91284

--Link1--
%chk=JID_10354.chk
%mem=8GB
%nprocshared=4
# B3LYP/6-311++G(d,p) empiricaldispersion=gd3bj scf=xqc pop=npa geom=check

CID_66241466_JID_10354_Energie_neutraal

0 1

--Link1--
%chk=JID_10354.chk
%mem=8GB
%nprocshared=4
# B3LYP/6-311++G(d,p) empiricaldispersion=gd3bj scf=xqc pop=npa geom=check

CID_66241466_JID_10354_Energie_kation

1 2

--Link1--
%chk=JID_10354.chk
%mem=8GB
%nprocshared=4
# B3LYP/6-311++G(d,p) empiricaldispersion=gd3bj scf=xqc pop=npa geom=check

CID_66241466_JID_10354_Energie_anion

-1 2
