%chk=JID_10807.chk
%mem=8GB
%nprocshared=4
# opt freq B3LYP/6-31G(d) empiricaldispersion=gd3bj scf=xqc

CID_141969953_JID_10807_neutraal

0 1
C          1.08106        0.02231       -0.05414
C          0.45197        0.51391        1.24105
N          1.09497        1.75558        1.64704
C          0.39063        2.50825        2.70229
C          1.08922        3.87619        2.75141
C          0.42789        4.77242        3.78634
C          0.54534        4.15052        5.14788
C          0.52195        2.75562        5.30028
C          0.33621        1.80799        4.10944
C         -0.99496        1.01616        4.28456
C         -0.82519       -0.46541        4.26201
C         -0.06937       -1.36095        4.99078
C         -0.37730       -2.64853        4.48801
C         -1.30664       -2.45950        3.49372
O         -1.58637       -1.13949        3.35119
C          0.68596        2.22159        6.59069
C          0.83038        3.05146        7.70429
C          0.82891        4.43876        7.55498
C          0.67099        4.97960        6.27508
C          0.94141        5.33240        8.75384
H          0.95075        0.75263       -0.85998
H          0.61072       -0.91486       -0.36899
H          2.15324       -0.16458        0.06996
H         -0.62159        0.65898        1.08022
H          0.59886       -0.25468        2.00168
H          2.05623        1.56763        1.93226
H         -0.63086        2.70687        2.35118
H          2.15663        3.75702        2.98473
H          1.02977        4.36555        1.77038
H          0.92272        5.75072        3.77049
H         -0.63098        4.93021        3.54987
H          1.19650        1.12457        4.16046
H         -1.49164        1.26596        5.23123
H         -1.71787        1.29973        3.50973
H          0.62098       -1.11952        5.78597
H          0.02385       -3.59799        4.81313
H         -1.84052       -3.12432        2.82905
H          0.69299        1.14569        6.74396
H          0.94098        2.60515        8.68988
H          0.66100        6.06095        6.14869
H         -0.04666        5.49068        9.19672
H          1.60232        4.89053        9.50699
H          1.36522        6.30468        8.48126

--Link1--
%chk=JID_10807.chk
%mem=8GB
%nprocshared=4
# B3LYP/6-311++G(d,p) empiricaldispersion=gd3bj scf=xqc pop=npa geom=check

CID_141969953_JID_10807_Energie_neutraal

0 1

--Link1--
%chk=JID_10807.chk
%mem=8GB
%nprocshared=4
# B3LYP/6-311++G(d,p) empiricaldispersion=gd3bj scf=xqc pop=npa geom=check

CID_141969953_JID_10807_Energie_kation

1 2

--Link1--
%chk=JID_10807.chk
%mem=8GB
%nprocshared=4
# B3LYP/6-311++G(d,p) empiricaldispersion=gd3bj scf=xqc pop=npa geom=check

CID_141969953_JID_10807_Energie_anion

-1 2
