%chk=JID_9617.chk
%mem=8GB
%nprocshared=4
# opt freq B3LYP/6-31G(d) empiricaldispersion=gd3bj scf=xqc

CID_61200956_JID_9617_neutraal

0 1
C          1.00681       -0.07977        0.05993
C          0.63108       -1.35413       -0.64693
O          0.41057       -2.39510       -0.03201
N          0.56220       -1.35254       -2.00890
C          0.86679       -0.26469       -2.92693
C          2.37579       -0.05029       -3.10912
N          3.03577       -1.26033       -3.58861
C          3.34616       -1.46021       -4.89476
O          2.99986       -2.50673       -5.44046
N          3.98553       -0.49326       -5.60130
C          4.87707        0.46677       -5.15404
C          5.40949        0.64501       -3.89912
N          6.27058        1.70374       -3.98739
N          6.31698        2.24661       -5.22042
C          5.49863        1.46817       -5.93435
C          7.01797        2.30568       -2.90104
C          8.43270        1.81832       -2.82890
O          9.39852        2.49764       -2.51046
O          8.58498        0.49147       -3.01123
H          0.73008       -0.16368        1.11552
H          0.46971        0.77621       -0.35349
H          2.08511        0.07886       -0.00566
H          0.30402       -2.25257       -2.40031
H          0.40383       -0.52546       -3.88494
H          0.39772        0.65375       -2.56276
H          2.51949        0.77723       -3.80891
H          2.84837        0.20721       -2.15808
H          2.67261       -2.11090       -3.17408
H          3.97551       -0.65546       -6.60068
H          5.28741        0.10143       -2.97334
H          5.37539        1.67396       -6.98961
H          7.01140        3.38907       -3.05942
H          6.50787        2.08131       -1.95918
H          9.54958        0.33851       -2.91747

--Link1--
%chk=JID_9617.chk
%mem=8GB
%nprocshared=4
# B3LYP/6-311++G(d,p) empiricaldispersion=gd3bj scf=xqc pop=npa geom=check

CID_61200956_JID_9617_Energie_neutraal

0 1

--Link1--
%chk=JID_9617.chk
%mem=8GB
%nprocshared=4
# B3LYP/6-311++G(d,p) empiricaldispersion=gd3bj scf=xqc pop=npa geom=check

CID_61200956_JID_9617_Energie_kation

1 2

--Link1--
%chk=JID_9617.chk
%mem=8GB
%nprocshared=4
# B3LYP/6-311++G(d,p) empiricaldispersion=gd3bj scf=xqc pop=npa geom=check

CID_61200956_JID_9617_Energie_anion

-1 2
