%chk=JID_4777.chk
%mem=8GB
%nprocshared=4
# opt freq B3LYP/6-31G(d) empiricaldispersion=gd3bj scf=xqc

CID_70192608_JID_4777_neutraal

0 1
C          1.04223        0.05539        0.07175
C          0.34983       -0.05673       -1.27843
C          0.55398       -1.41560       -1.95404
C         -0.12254       -2.59206       -1.25054
O         -1.55230       -2.48111       -1.34394
C         -2.20124       -2.06141       -0.23216
O         -1.69815       -1.77019        0.84114
C         -3.64951       -1.92156       -0.47479
C         -4.31141       -2.60010       -1.42330
C         -5.70511       -2.43157       -1.58056
C         -6.62902       -1.44306       -1.30598
N         -7.89387       -1.83302       -1.66551
C         -7.75515       -3.04321       -2.15288
N         -6.44889       -3.44410       -2.13653
H          0.65237       -0.66290        0.79626
H          0.89650        1.05844        0.48547
H          2.11927       -0.11328       -0.02894
H         -0.71743        0.16155       -1.16739
H          0.75718        0.72022       -1.93703
H          0.15512       -1.34298       -2.97360
H          1.62803       -1.61821       -2.04094
H          0.14700       -3.51578       -1.77483
H          0.22253       -2.71079       -0.21813
H         -4.14841       -1.25733        0.22242
H         -3.78539       -3.30248       -2.06608
H         -6.45125       -0.46681       -0.87315
H         -8.55233       -3.67159       -2.52701
H         -6.10759       -4.34191       -2.44924

--Link1--
%chk=JID_4777.chk
%mem=8GB
%nprocshared=4
# B3LYP/6-311++G(d,p) empiricaldispersion=gd3bj scf=xqc pop=npa geom=check

CID_70192608_JID_4777_Energie_neutraal

0 1

--Link1--
%chk=JID_4777.chk
%mem=8GB
%nprocshared=4
# B3LYP/6-311++G(d,p) empiricaldispersion=gd3bj scf=xqc pop=npa geom=check

CID_70192608_JID_4777_Energie_kation

1 2

--Link1--
%chk=JID_4777.chk
%mem=8GB
%nprocshared=4
# B3LYP/6-311++G(d,p) empiricaldispersion=gd3bj scf=xqc pop=npa geom=check

CID_70192608_JID_4777_Energie_anion

-1 2
