%chk=JID_7287.chk
%mem=8GB
%nprocshared=4
# opt freq B3LYP/6-31G(d) empiricaldispersion=gd3bj scf=xqc

CID_65635394_JID_7287_neutraal

0 1
C          0.97745       -0.07351       -0.06393
N          0.44960        0.43584        1.19582
C         -0.00361        1.83908        1.21496
C         -1.21735        2.15545        0.33943
C         -2.45811        1.63108        0.91952
N         -3.44840        1.23598        1.37825
C          0.94592       -0.19522        2.35448
O          1.79263       -1.08497        2.32987
C          0.43979        0.24772        3.67120
C         -0.91187        0.08850        4.02822
C         -1.29418        0.55788        5.29838
C         -0.37849        1.15280        6.17269
C          0.95378        1.29665        5.79366
C          1.36620        0.84287        4.54288
O         -2.58343        0.40644        5.74946
C         -3.42822        1.43669        5.23207
N         -1.79032       -0.72044        3.28603
H          0.25994        0.09484       -0.86917
H          1.16825       -1.14921       -0.00124
H          1.91702        0.44070       -0.28748
H         -0.19743        2.17485        2.23762
H          0.85051        2.43391        0.86615
H         -1.30887        3.24540        0.25824
H         -1.09044        1.77929       -0.67960
H         -0.70548        1.48136        7.15553
H          1.67089        1.74256        6.47794
H          2.40967        0.93168        4.24886
H         -2.88038        2.28043        4.79481
H         -4.09787        1.00801        4.48086
H         -4.03965        1.81694        6.05600
H         -2.77293       -0.55029        3.48409
H         -1.60052       -0.78148        2.29133

--Link1--
%chk=JID_7287.chk
%mem=8GB
%nprocshared=4
# B3LYP/6-311++G(d,p) empiricaldispersion=gd3bj scf=xqc pop=npa geom=check

CID_65635394_JID_7287_Energie_neutraal

0 1

--Link1--
%chk=JID_7287.chk
%mem=8GB
%nprocshared=4
# B3LYP/6-311++G(d,p) empiricaldispersion=gd3bj scf=xqc pop=npa geom=check

CID_65635394_JID_7287_Energie_kation

1 2

--Link1--
%chk=JID_7287.chk
%mem=8GB
%nprocshared=4
# B3LYP/6-311++G(d,p) empiricaldispersion=gd3bj scf=xqc pop=npa geom=check

CID_65635394_JID_7287_Energie_anion

-1 2
