%chk=JID_6679.chk
%mem=8GB
%nprocshared=4
# opt freq B3LYP/6-31G(d) empiricaldispersion=gd3bj scf=xqc

CID_70340611_JID_6679_neutraal

0 1
C          0.99499        0.08001        0.05978
C          1.05331        0.90430        1.33411
O          1.35616        2.26665        1.01041
C          2.67639        2.56571        1.19247
C          3.23901        2.63463        2.46123
C          4.58797        2.98064        2.60549
C          5.38969        3.27693        1.48928
C          4.78626        3.23084        0.22542
C          3.43683        2.88859        0.07703
N          6.75770        3.61924        1.65470
C          7.39374        3.72799        2.95120
C          8.74972        4.34574        2.65656
N          8.94855        4.06439        1.26081
C          7.72237        3.78904        0.63248
O          7.57797        3.72596       -0.57818
C         10.10531        4.53924        0.54226
H          0.28498        0.51653       -0.65032
H          0.69136       -0.94810        0.27644
H          1.97104        0.05878       -0.43551
H          0.06817        0.90034        1.81302
H          1.75982        0.45867        2.04512
H          2.63621        2.42869        3.34055
H          4.98870        3.00564        3.61363
H          5.33803        3.47082       -0.67815
H          2.98941        2.87126       -0.91274
H          6.81875        4.35698        3.63766
H          7.50633        2.72044        3.36753
H          9.55402        3.91935        3.26199
H          8.72265        5.43309        2.78838
H         10.06233        5.63057        0.48568
H         11.00903        4.22793        1.07228
H         10.11527        4.13141       -0.47209

--Link1--
%chk=JID_6679.chk
%mem=8GB
%nprocshared=4
# B3LYP/6-311++G(d,p) empiricaldispersion=gd3bj scf=xqc pop=npa geom=check

CID_70340611_JID_6679_Energie_neutraal

0 1

--Link1--
%chk=JID_6679.chk
%mem=8GB
%nprocshared=4
# B3LYP/6-311++G(d,p) empiricaldispersion=gd3bj scf=xqc pop=npa geom=check

CID_70340611_JID_6679_Energie_kation

1 2

--Link1--
%chk=JID_6679.chk
%mem=8GB
%nprocshared=4
# B3LYP/6-311++G(d,p) empiricaldispersion=gd3bj scf=xqc pop=npa geom=check

CID_70340611_JID_6679_Energie_anion

-1 2
