%chk=JID_1848.chk
%mem=8GB
%nprocshared=4
# opt freq B3LYP/6-31G(d) empiricaldispersion=gd3bj scf=xqc

CID_144218640_JID_1848_neutraal

0 1
C          0.98359       -0.06036       -0.07802
C          0.37655       -0.93429        1.01019
N          0.69614       -0.37549        2.31777
C          0.02590       -1.05280        3.42989
C          0.62175       -2.41894        3.77103
C          1.61269       -2.58472        4.66882
C          2.34465       -1.51381        5.43579
C          1.88548       -1.38698        6.89459
C          2.22318       -2.58713        7.73747
C          3.09135       -2.57080        8.75679
N          0.05426       -3.52004        3.14935
H          0.59241        0.96160       -0.02980
H          0.74283       -0.46688       -1.06562
H          2.07438       -0.01542        0.01096
H         -0.70855       -0.97505        0.86316
H          0.77685       -1.94777        0.90560
H          1.70238       -0.41161        2.47388
H          0.08070       -0.39690        4.30657
H         -1.04910       -1.15076        3.22947
H          1.95289       -3.59660        4.88258
H          3.41841       -1.73851        5.40021
H          2.23343       -0.53980        4.94723
H          2.34790       -0.48916        7.32400
H          0.80121       -1.22489        6.93472
H          1.70403       -3.51455        7.50309
H          3.28364       -3.46902        9.33579
H          3.62606       -1.66920        9.03878
H         -0.38392       -3.30688        2.25764
H          0.66366       -4.33223        3.10588

--Link1--
%chk=JID_1848.chk
%mem=8GB
%nprocshared=4
# B3LYP/6-311++G(d,p) empiricaldispersion=gd3bj scf=xqc pop=npa geom=check

CID_144218640_JID_1848_Energie_neutraal

0 1

--Link1--
%chk=JID_1848.chk
%mem=8GB
%nprocshared=4
# B3LYP/6-311++G(d,p) empiricaldispersion=gd3bj scf=xqc pop=npa geom=check

CID_144218640_JID_1848_Energie_kation

1 2

--Link1--
%chk=JID_1848.chk
%mem=8GB
%nprocshared=4
# B3LYP/6-311++G(d,p) empiricaldispersion=gd3bj scf=xqc pop=npa geom=check

CID_144218640_JID_1848_Energie_anion

-1 2
