%chk=JID_2272.chk
%mem=8GB
%nprocshared=4
# opt freq B3LYP/6-31G(d) empiricaldispersion=gd3bj scf=xqc

CID_146923654_JID_2272_neutraal

0 1
C          1.09010        0.03558        0.02483
C          0.36348       -0.09589       -1.30204
C          0.49768       -1.47918       -1.97618
C          0.02148       -2.68037       -1.12283
C         -0.29218       -3.71757       -2.21014
C         -0.91311       -2.92471       -3.36337
C         -0.61402       -1.46022       -3.05680
C         -1.74036       -0.77498       -2.31085
C         -1.14604        0.07044       -1.21703
C         -1.97229       -1.15096       -0.86837
C         -1.25158       -2.34458       -0.30492
C         -1.68993        1.43704       -0.95137
H          0.69762       -0.63352        0.79396
H          0.99649        1.05575        0.41210
H          2.15649       -0.17921       -0.09886
H          0.75847        0.66337       -1.99078
H          1.49169       -1.65559       -2.40137
H          0.80331       -3.05294       -0.45274
H         -0.94745       -4.52356       -1.86545
H          0.64108       -4.18224       -2.55250
H         -1.98880       -3.11432       -3.44538
H         -0.44763       -3.22937       -4.30718
H         -0.33676       -0.88454       -3.94559
H         -2.55435       -0.41107       -2.91783
H         -2.95675       -1.00989       -0.44135
H         -0.97451       -2.12203        0.73160
H         -1.92996       -3.20404       -0.25969
H         -1.42968        1.76135        0.06092
H         -1.27749        2.16103       -1.66143
H         -2.78119        1.46403       -1.04108

--Link1--
%chk=JID_2272.chk
%mem=8GB
%nprocshared=4
# B3LYP/6-311++G(d,p) empiricaldispersion=gd3bj scf=xqc pop=npa geom=check

CID_146923654_JID_2272_Energie_neutraal

0 1

--Link1--
%chk=JID_2272.chk
%mem=8GB
%nprocshared=4
# B3LYP/6-311++G(d,p) empiricaldispersion=gd3bj scf=xqc pop=npa geom=check

CID_146923654_JID_2272_Energie_kation

1 2

--Link1--
%chk=JID_2272.chk
%mem=8GB
%nprocshared=4
# B3LYP/6-311++G(d,p) empiricaldispersion=gd3bj scf=xqc pop=npa geom=check

CID_146923654_JID_2272_Energie_anion

-1 2
