%chk=JID_4330.chk
%mem=8GB
%nprocshared=4
# opt freq B3LYP/6-31G(d) empiricaldispersion=gd3bj scf=xqc

CID_105450674_JID_4330_neutraal

0 1
C          1.00437        0.02034        0.09781
C          0.08787       -0.13069        1.32512
C         -0.08267        1.24587        2.01271
C         -1.33617       -0.49295        0.82669
C          0.65265       -1.19678        2.27790
C          1.52659       -1.05626        3.36250
N          1.53912       -2.27495        3.98382
N          0.93245       -3.24254        3.29979
C          0.41346       -2.61028        2.25732
N         -0.23276       -3.29243        1.30302
C          2.32447       -0.00105        3.91823
O          2.62131        0.08376        5.10349
O          2.81539        0.79993        2.93774
C          3.68404        1.83044        3.40900
H          0.61751        0.77531       -0.59603
H          1.09303       -0.92379       -0.45197
H          2.01647        0.32307        0.38737
H         -0.67489        1.93092        1.39346
H         -0.59297        1.14980        2.97802
H          0.86463        1.75889        2.17878
H         -1.33688       -1.32859        0.12243
H         -1.99748       -0.74815        1.66302
H         -1.79489        0.34445        0.28648
H          2.01585       -2.51456        4.84785
H         -0.15377       -4.30047        1.39609
H         -0.12340       -3.00016        0.34056
H          3.15701        2.48696        4.10873
H          4.57351        1.39766        3.87754
H          4.00082        2.42626        2.54866

--Link1--
%chk=JID_4330.chk
%mem=8GB
%nprocshared=4
# B3LYP/6-311++G(d,p) empiricaldispersion=gd3bj scf=xqc pop=npa geom=check

CID_105450674_JID_4330_Energie_neutraal

0 1

--Link1--
%chk=JID_4330.chk
%mem=8GB
%nprocshared=4
# B3LYP/6-311++G(d,p) empiricaldispersion=gd3bj scf=xqc pop=npa geom=check

CID_105450674_JID_4330_Energie_kation

1 2

--Link1--
%chk=JID_4330.chk
%mem=8GB
%nprocshared=4
# B3LYP/6-311++G(d,p) empiricaldispersion=gd3bj scf=xqc pop=npa geom=check

CID_105450674_JID_4330_Energie_anion

-1 2
