%chk=JID_7386.chk
%mem=8GB
%nprocshared=4
# opt freq B3LYP/6-31G(d) empiricaldispersion=gd3bj scf=xqc

CID_65554873_JID_7386_neutraal

0 1
C          1.05187        0.06040       -0.06052
C          0.50410       -0.43495        1.27273
C          0.41890        0.67909        2.32730
C         -0.56636        1.81842        2.03320
N         -1.84529        1.39448        1.46125
S          0.25695        0.05878        4.02082
O          0.90320       -1.23352        4.10594
O          0.68236        1.13603        4.89314
N         -1.34789       -0.15068        4.32834
C         -2.13885       -1.25588        3.76032
C         -2.01038       -2.47444        4.67700
C         -3.61319       -0.85055        3.64326
C         -4.53302       -1.68667        3.01028
C         -5.87188       -1.30561        2.96647
C         -6.25888       -0.10181        3.54214
C         -5.28620        0.68034        4.13971
N         -3.98078        0.33896        4.20325
H          0.40356        0.81897       -0.50800
H          1.12856       -0.77235       -0.76704
H          2.05094        0.49053        0.06271
H         -0.47158       -0.90171        1.10961
H          1.16893       -1.23302        1.62183
H          1.41677        1.14304        2.36349
H         -0.76247        2.40134        2.93993
H         -0.10489        2.51396        1.32167
H         -2.51124        2.16790        1.51000
H         -1.73600        1.19147        0.46762
H         -1.91213        0.69413        4.47021
H         -1.78088       -1.49979        2.75730
H         -2.37501       -2.25324        5.68705
H         -2.58356       -3.32683        4.29649
H         -0.97125       -2.80300        4.76854
H         -4.22208       -2.62789        2.56863
H         -6.60917       -1.94760        2.49243
H         -7.29462        0.21842        3.52825
H         -5.53948        1.62990        4.60257

--Link1--
%chk=JID_7386.chk
%mem=8GB
%nprocshared=4
# B3LYP/6-311++G(d,p) empiricaldispersion=gd3bj scf=xqc pop=npa geom=check

CID_65554873_JID_7386_Energie_neutraal

0 1

--Link1--
%chk=JID_7386.chk
%mem=8GB
%nprocshared=4
# B3LYP/6-311++G(d,p) empiricaldispersion=gd3bj scf=xqc pop=npa geom=check

CID_65554873_JID_7386_Energie_kation

1 2

--Link1--
%chk=JID_7386.chk
%mem=8GB
%nprocshared=4
# B3LYP/6-311++G(d,p) empiricaldispersion=gd3bj scf=xqc pop=npa geom=check

CID_65554873_JID_7386_Energie_anion

-1 2
