%chk=JID_7266.chk
%mem=8GB
%nprocshared=4
# opt freq B3LYP/6-31G(d) empiricaldispersion=gd3bj scf=xqc

CID_145509964_JID_7266_neutraal

0 1
C          0.98991        0.04456       -0.08895
C          1.16981       -0.15902       -1.57647
C         -0.25480       -2.81416        3.67869
C         -0.14962       -1.32228        3.52102
C          1.02663       -0.68024        3.92033
C          1.13675        0.69342        3.75977
N          0.14687        1.44761        3.23416
C         -0.98607        0.84197        2.84042
C         -1.19392       -0.54986        2.95818
C         -2.41197       -1.09681        2.49570
C         -3.39409       -0.28950        1.92163
C         -3.18763        1.08315        1.80029
C         -1.98173        1.62503        2.26930
C         -4.22779        1.96616        1.15063
C         -4.22050        1.85594       -0.37437
O         -4.87870        0.66233       -0.79154
C          2.39677        1.39969        4.16108
H          0.46257       -0.80756        0.34801
H          0.41042        0.95194        0.10149
H          1.95994        0.14296        0.40707
H          1.75075       -1.06494       -1.77321
H          0.19830       -0.25894       -2.06987
H          1.69565        0.69145       -2.02038
H         -1.11231       -3.07259        4.30804
H         -0.35880       -3.29268        2.69944
H          0.63796       -3.23256        4.15592
H          1.85224       -1.24378        4.34446
H         -2.60526       -2.16402        2.56472
H         -4.31551       -0.73970        1.55627
H         -1.79687        2.69351        2.17867
H         -5.21462        1.70280        1.55080
H         -4.03780        3.00839        1.43462
H         -4.77122        2.69774       -0.80625
H         -3.20182        1.85891       -0.77684
H         -4.77535        0.60654       -1.75704
H          2.32519        2.47253        3.95510
H          2.57990        1.26864        5.23190
H          3.24764        1.00232        3.59863

--Link1--
%chk=JID_7266.chk
%mem=8GB
%nprocshared=4
# B3LYP/6-311++G(d,p) empiricaldispersion=gd3bj scf=xqc pop=npa geom=check

CID_145509964_JID_7266_Energie_neutraal

0 1

--Link1--
%chk=JID_7266.chk
%mem=8GB
%nprocshared=4
# B3LYP/6-311++G(d,p) empiricaldispersion=gd3bj scf=xqc pop=npa geom=check

CID_145509964_JID_7266_Energie_kation

1 2

--Link1--
%chk=JID_7266.chk
%mem=8GB
%nprocshared=4
# B3LYP/6-311++G(d,p) empiricaldispersion=gd3bj scf=xqc pop=npa geom=check

CID_145509964_JID_7266_Energie_anion

-1 2
