%chk=JID_10597.chk
%mem=8GB
%nprocshared=4
# opt freq B3LYP/6-31G(d) empiricaldispersion=gd3bj scf=xqc

CID_106822637_JID_10597_neutraal

0 1
C          0.97267       -0.07974       -0.05380
C          0.82564        0.92757        1.07000
O          1.37050        2.19243        0.66962
C          2.71049        2.38049        0.89738
O          3.41442        1.54714        1.46549
C          3.18442        3.80671        0.35104
C          2.16413        4.98090        0.52395
C          3.30826        5.86581        1.05820
C          4.12539        4.58792        1.32479
O          3.05844        6.76095        2.16316
C          2.26272        6.32134        3.25308
N          3.77135        3.82431       -1.00438
C          3.40238        2.86683       -1.98010
C          4.02832        1.61653       -2.00119
C          3.65256        0.63804       -2.92666
C          2.61010        0.90340       -3.81439
C          1.95786        2.13883       -3.77889
C          2.35113        3.11653       -2.86421
O          4.36915       -0.52485       -2.85437
C          4.10828       -1.50497       -3.85025
H          0.52956        0.30479       -0.97817
H          0.48610       -1.02415        0.20570
H          2.02801       -0.27950       -0.26286
H         -0.23668        1.09099        1.27896
H          1.28254        0.56630        1.99810
H          1.69110        5.34818       -0.39292
H          1.36579        4.77184        1.24372
H          3.76103        6.45106        0.24580
H          4.09540        4.22934        2.35949
H          5.17811        4.64752        1.02774
H          1.20929        6.30201        2.96177
H          2.57533        5.33558        3.60519
H          2.37967        7.03565        4.07251
H          3.69830        4.75179       -1.42048
H          4.83134        1.40408       -1.29840
H          2.27513        0.16874       -4.53867
H          1.13727        2.33699       -4.46373
H          1.82283        4.06530       -2.84234
H          3.09193       -1.90043       -3.75445
H          4.28541       -1.10771       -4.85543
H          4.80492       -2.33431       -3.69399

--Link1--
%chk=JID_10597.chk
%mem=8GB
%nprocshared=4
# B3LYP/6-311++G(d,p) empiricaldispersion=gd3bj scf=xqc pop=npa geom=check

CID_106822637_JID_10597_Energie_neutraal

0 1

--Link1--
%chk=JID_10597.chk
%mem=8GB
%nprocshared=4
# B3LYP/6-311++G(d,p) empiricaldispersion=gd3bj scf=xqc pop=npa geom=check

CID_106822637_JID_10597_Energie_kation

1 2

--Link1--
%chk=JID_10597.chk
%mem=8GB
%nprocshared=4
# B3LYP/6-311++G(d,p) empiricaldispersion=gd3bj scf=xqc pop=npa geom=check

CID_106822637_JID_10597_Energie_anion

-1 2
