%chk=JID_7856.chk
%mem=8GB
%nprocshared=4
# opt freq B3LYP/6-31G(d) empiricaldispersion=gd3bj scf=xqc

CID_69554519_JID_7856_neutraal

0 1
C          1.02573        0.07996       -0.05427
O          0.85322       -1.31388        0.21602
C          1.34402       -1.62980        1.45859
C          0.45456       -1.69561        2.54763
C          0.97695       -2.00174        3.81622
C          2.33119       -2.28500        3.98527
C          3.18574       -2.27525        2.88613
C          2.70241       -1.96206        1.60618
C          3.66093       -1.98406        0.44451
O          4.50808       -0.83956        0.46007
C         -1.02714       -1.42197        2.40601
N         -1.92342       -2.54642        2.13385
C         -1.99056       -3.59983        3.15264
C         -1.05133       -4.79560        2.91914
O         -1.20508       -5.33092        1.59958
C         -0.90978       -4.31923        0.62761
C         -1.84793       -3.11145        0.77992
H          0.40616        0.32962       -0.92072
H          2.06646        0.30112       -0.30815
H          0.70225        0.70602        0.78497
H          0.32190       -2.02973        4.68468
H          2.71703       -2.52854        4.97227
H          4.23717       -2.52071        3.02756
H          4.29159       -2.87850        0.49605
H          3.14398       -2.01955       -0.51896
H          4.24725       -0.28470        1.21407
H         -1.36995       -0.93311        3.32892
H         -1.18708       -0.64696        1.64605
H         -3.01852       -3.98528        3.12901
H         -1.85209       -3.19423        4.16122
H         -0.00068       -4.53668        3.07832
H         -1.29801       -5.59474        3.62590
H         -1.05046       -4.76724       -0.36151
H          0.14466       -4.04238        0.71045
H         -2.86173       -3.45584        0.53572
H         -1.61315       -2.34448        0.03371

--Link1--
%chk=JID_7856.chk
%mem=8GB
%nprocshared=4
# B3LYP/6-311++G(d,p) empiricaldispersion=gd3bj scf=xqc pop=npa geom=check

CID_69554519_JID_7856_Energie_neutraal

0 1

--Link1--
%chk=JID_7856.chk
%mem=8GB
%nprocshared=4
# B3LYP/6-311++G(d,p) empiricaldispersion=gd3bj scf=xqc pop=npa geom=check

CID_69554519_JID_7856_Energie_kation

1 2

--Link1--
%chk=JID_7856.chk
%mem=8GB
%nprocshared=4
# B3LYP/6-311++G(d,p) empiricaldispersion=gd3bj scf=xqc pop=npa geom=check

CID_69554519_JID_7856_Energie_anion

-1 2
