%chk=JID_8387.chk
%mem=8GB
%nprocshared=4
# opt freq B3LYP/6-31G(d) empiricaldispersion=gd3bj scf=xqc

CID_61389357_JID_8387_neutraal

0 1
C          0.93991        0.07937        0.00949
C         -0.21630        0.15615       -1.77259
C         -0.09585       -0.64825       -3.30027
C         -0.70047       -1.88065       -3.52493
S         -0.60026       -2.39835       -5.14797
C          0.33670       -1.04852       -5.58235
C          0.53947       -0.19691       -4.51825
C         -1.33994       -2.72633       -2.55561
O         -2.12806       -3.63715       -2.80309
N         -1.00624       -2.49711       -1.25349
C         -0.11541       -1.50192       -0.64763
C          1.55707       -0.85761       -1.62047
C          1.75090        1.15397       -1.76236
C          0.85945        2.32012       -2.50900
C         -0.45080        2.78327       -1.53020
C         -0.37559        1.89961       -0.21577
C         -1.11244        0.08001        0.13409
N          1.29364        2.09811       -0.38999
H          1.17116       -0.84820        0.58779
H          0.64096        0.61672        0.94934
H          2.04878        0.29969        0.00955
H         -1.26700       -0.21807       -1.70838
H         -0.63087        1.03341       -2.18721
H          0.69746       -0.93797       -6.59595
H          1.13829        0.69103       -4.64966
H         -1.49926       -3.12500       -0.62976
H          0.20755       -2.13457        0.20283
H          2.41562       -1.22690       -1.01842
H          1.77476       -1.38455       -2.55731
H          2.82386        1.32473       -1.91441
H          0.50243        2.11894       -3.51497
H          1.49209        3.21450       -2.62764
H         -1.41567        2.72907       -2.05206
H         -0.30939        3.84693       -1.28718
H         -0.68548        2.48659        0.65791
H         -2.17574        0.06779       -0.16103
H         -1.11250       -0.08547        1.22660
H          1.53397        3.08075       -0.53984

--Link1--
%chk=JID_8387.chk
%mem=8GB
%nprocshared=4
# B3LYP/6-311++G(d,p) empiricaldispersion=gd3bj scf=xqc pop=npa geom=check

CID_61389357_JID_8387_Energie_neutraal

0 1

--Link1--
%chk=JID_8387.chk
%mem=8GB
%nprocshared=4
# B3LYP/6-311++G(d,p) empiricaldispersion=gd3bj scf=xqc pop=npa geom=check

CID_61389357_JID_8387_Energie_kation

1 2

--Link1--
%chk=JID_8387.chk
%mem=8GB
%nprocshared=4
# B3LYP/6-311++G(d,p) empiricaldispersion=gd3bj scf=xqc pop=npa geom=check

CID_61389357_JID_8387_Energie_anion

-1 2
