%chk=JID_5705.chk
%mem=8GB
%nprocshared=4
# opt freq B3LYP/6-31G(d) empiricaldispersion=gd3bj scf=xqc

CID_66265311_JID_5705_neutraal

0 1
C          1.06082       -0.07462       -0.02708
N          0.41505        0.15928        1.25612
C         -0.88809        0.80544        1.18279
C          0.95867       -0.47118        2.36673
O          1.94343       -1.20370        2.26292
N          0.30921       -0.31211        3.58974
C         -0.00485        1.04026        4.04454
C          0.60673       -1.29601        4.66540
C          0.78302       -2.75134        4.19605
O          0.38090       -3.62574        5.25981
C         -0.29744       -2.85280        6.24835
C         -0.52090       -1.46734        5.67851
C         -0.54558       -0.46279        6.79105
O         -1.52835        0.16067        7.15393
O          0.63056       -0.29198        7.41882
H          0.98212        0.82755       -0.64139
H          0.55207       -0.90545       -0.52533
H          2.11952       -0.32321        0.08777
H         -1.53851        0.52000        2.01042
H         -0.73114        1.88911        1.18263
H         -1.38535        0.52739        0.24841
H         -1.06295        1.08383        4.31700
H          0.60848        1.28171        4.91813
H          0.21807        1.79791        3.29081
H          1.53758       -0.96998        5.14769
H          0.15226       -2.98341        3.33096
H          1.82201       -2.98268        3.94193
H          0.32074       -2.85594        7.15299
H         -1.24200       -3.34757        6.49605
H         -1.48910       -1.43530        5.16205
H          0.44045        0.35916        8.12825

--Link1--
%chk=JID_5705.chk
%mem=8GB
%nprocshared=4
# B3LYP/6-311++G(d,p) empiricaldispersion=gd3bj scf=xqc pop=npa geom=check

CID_66265311_JID_5705_Energie_neutraal

0 1

--Link1--
%chk=JID_5705.chk
%mem=8GB
%nprocshared=4
# B3LYP/6-311++G(d,p) empiricaldispersion=gd3bj scf=xqc pop=npa geom=check

CID_66265311_JID_5705_Energie_kation

1 2

--Link1--
%chk=JID_5705.chk
%mem=8GB
%nprocshared=4
# B3LYP/6-311++G(d,p) empiricaldispersion=gd3bj scf=xqc pop=npa geom=check

CID_66265311_JID_5705_Energie_anion

-1 2
