%chk=JID_8519.chk
%mem=8GB
%nprocshared=4
# opt freq B3LYP/6-31G(d) empiricaldispersion=gd3bj scf=xqc

CID_153229476_JID_8519_neutraal

0 1
C          1.06729       -0.03424        0.06557
C          0.28579       -0.52664        1.27811
C          0.69251        0.15483        2.59352
C          0.37867        1.65358        2.61121
C         -0.52060        2.09314        3.78075
C         -0.37030        3.60351        3.79430
C         -1.64079        4.48159        3.83440
C         -0.76309        4.35592        4.99160
C         -0.18667        5.26764        5.97663
C         -0.95769        4.01442        6.40593
C         -2.29679        4.13822        7.04337
C          0.76257        3.98860        2.84101
C          1.56580        2.65210        2.68626
C          2.50378        2.44039        3.86404
C          3.55645        1.35792        3.94470
C          3.98374        2.78543        3.76815
C          4.68124        3.15468        2.50160
C          1.58666        5.20817        3.21509
H          0.87656        1.02288       -0.13960
H          0.77705       -0.60364       -0.82317
H          2.14351       -0.16613        0.21615
H         -0.78726       -0.38517        1.10371
H          0.44896       -1.60608        1.38214
H          0.15679       -0.34849        3.40748
H          1.75108       -0.04327        2.75468
H         -0.18233        1.89532        1.69600
H         -1.55627        1.77759        3.61591
H         -0.17518        1.66400        4.72813
H         -1.63560        5.41785        3.28935
H         -2.60572        3.98979        3.86501
H         -0.65680        6.23334        6.11427
H          0.88221        5.26126        6.14453
H         -0.38285        3.19514        6.82023
H         -2.87079        3.21858        6.89230
H         -2.18563        4.29607        8.12077
H         -2.87555        4.97313        6.63539
H          0.29768        4.20462        1.86760
H          2.11480        2.64846        1.73958
H          2.02078        2.68088        4.80904
H          3.72544        0.89729        4.91297
H          3.71269        0.68396        3.11207
H          4.41813        3.30053        4.61887
H          4.48007        4.19663        2.24002
H          5.76276        3.03989        2.62935
H          4.38364        2.52221        1.65889
H          2.34927        5.40091        2.45400
H          0.95295        6.09944        3.27625
H          2.09210        5.09744        4.17745

--Link1--
%chk=JID_8519.chk
%mem=8GB
%nprocshared=4
# B3LYP/6-311++G(d,p) empiricaldispersion=gd3bj scf=xqc pop=npa geom=check

CID_153229476_JID_8519_Energie_neutraal

0 1

--Link1--
%chk=JID_8519.chk
%mem=8GB
%nprocshared=4
# B3LYP/6-311++G(d,p) empiricaldispersion=gd3bj scf=xqc pop=npa geom=check

CID_153229476_JID_8519_Energie_kation

1 2

--Link1--
%chk=JID_8519.chk
%mem=8GB
%nprocshared=4
# B3LYP/6-311++G(d,p) empiricaldispersion=gd3bj scf=xqc pop=npa geom=check

CID_153229476_JID_8519_Energie_anion

-1 2
