%chk=JID_9249.chk
%mem=8GB
%nprocshared=4
# opt freq B3LYP/6-31G(d) empiricaldispersion=gd3bj scf=xqc

CID_115153077_JID_9249_neutraal

0 1
C          0.99396       -0.01567       -0.09858
C          0.56873        1.40699        0.26646
C          1.23909        2.45281       -0.62200
O         -0.85729        1.58064        0.37902
C         -1.57939        1.39200       -0.76483
C         -1.85447        2.47010       -1.60209
C         -2.64738        2.28798       -2.73848
C         -3.20573        1.03387       -3.02416
C         -2.95705       -0.03042       -2.14582
C         -2.15956        0.15216       -1.01338
C         -4.03835        0.82976       -4.26894
C         -5.49534        0.40156       -4.02714
N         -6.30191        1.39619       -3.30971
C         -6.65601        2.59953       -4.05458
C         -6.62920        1.14342       -1.98232
O         -6.33312        0.07994       -1.42769
C         -7.34515        2.20744       -1.17265
C         -6.37054        3.11929       -0.43555
N         -5.71397        4.09591       -1.30737
H          0.73403       -0.25972       -1.13375
H          0.49267       -0.74511        0.54595
H          2.07612       -0.13886        0.01230
H          0.93697        1.58586        1.28464
H          1.00088        2.29715       -1.67907
H          0.90384        3.45996       -0.35331
H          2.32808        2.41063       -0.51751
H         -1.45391        3.45303       -1.37389
H         -2.83051        3.13568       -3.39448
H         -3.39673       -1.00915       -2.32560
H         -2.00211       -0.67351       -0.32584
H         -4.02265        1.74272       -4.87666
H         -3.54319        0.06264       -4.87845
H         -5.98295        0.22563       -4.99388
H         -5.51650       -0.55844       -3.50036
H         -7.38338        3.22794       -3.54553
H         -5.75157        3.18686       -4.23334
H         -7.08603        2.30193       -5.01607
H         -8.07698        2.76479       -1.76000
H         -7.94669        1.67086       -0.42604
H         -6.92477        3.67360        0.33007
H         -5.60412        2.53009        0.08064
H         -5.14884        4.71577       -0.72515
H         -5.03493        3.59216       -1.88224

--Link1--
%chk=JID_9249.chk
%mem=8GB
%nprocshared=4
# B3LYP/6-311++G(d,p) empiricaldispersion=gd3bj scf=xqc pop=npa geom=check

CID_115153077_JID_9249_Energie_neutraal

0 1

--Link1--
%chk=JID_9249.chk
%mem=8GB
%nprocshared=4
# B3LYP/6-311++G(d,p) empiricaldispersion=gd3bj scf=xqc pop=npa geom=check

CID_115153077_JID_9249_Energie_kation

1 2

--Link1--
%chk=JID_9249.chk
%mem=8GB
%nprocshared=4
# B3LYP/6-311++G(d,p) empiricaldispersion=gd3bj scf=xqc pop=npa geom=check

CID_115153077_JID_9249_Energie_anion

-1 2
