%chk=JID_6152.chk
%mem=8GB
%nprocshared=4
# opt freq B3LYP/6-31G(d) empiricaldispersion=gd3bj scf=xqc

CID_123298517_JID_6152_neutraal

0 1
C          1.52000        0.00000        0.20800
C          0.72216       -0.32016       -1.05252
C         -0.61548        0.40260       -1.05539
O         -1.43694        0.04888        0.05510
C         -0.75838       -0.13122        1.29591
C          0.62587        0.51434        1.33282
O         -0.61912       -1.53130        1.56374
C         -1.83841       -2.08052        2.08556
C         -1.70018       -3.60668        2.19020
C         -2.01384       -4.35651        0.89136
C         -1.17817       -3.99273       -0.34194
C          0.31153       -4.34742       -0.28005
C          0.56240       -5.77096       -0.01095
N          0.80255       -6.89106        0.17702
O         -1.78755       -4.63259       -1.47404
O         -0.39845       -3.95333        2.66339
H          2.05695       -0.89992        0.53152
H          2.28640        0.75276       -0.01165
H          1.30486       -0.06282       -1.94347
H          0.54437       -1.40059       -1.08846
H         -0.47321        1.48948       -1.05252
H         -1.17188        0.15495       -1.96523
H         -1.37097        0.33057        2.07991
H          1.11512        0.32855        2.29564
H          0.51556        1.60052        1.22339
H         -1.97585       -1.66925        3.09265
H         -2.70093       -1.80457        1.46868
H         -2.41603       -3.95966        2.94201
H         -1.93192       -5.43600        1.07280
H         -3.07214       -4.19095        0.64640
H         -1.27654       -2.91938       -0.53151
H          0.76853       -4.10562       -1.24806
H          0.82530       -3.73242        0.46414
H         -1.38286       -4.27585       -2.28352
H          0.14433       -3.14302        2.59839

--Link1--
%chk=JID_6152.chk
%mem=8GB
%nprocshared=4
# B3LYP/6-311++G(d,p) empiricaldispersion=gd3bj scf=xqc pop=npa geom=check

CID_123298517_JID_6152_Energie_neutraal

0 1

--Link1--
%chk=JID_6152.chk
%mem=8GB
%nprocshared=4
# B3LYP/6-311++G(d,p) empiricaldispersion=gd3bj scf=xqc pop=npa geom=check

CID_123298517_JID_6152_Energie_kation

1 2

--Link1--
%chk=JID_6152.chk
%mem=8GB
%nprocshared=4
# B3LYP/6-311++G(d,p) empiricaldispersion=gd3bj scf=xqc pop=npa geom=check

CID_123298517_JID_6152_Energie_anion

-1 2
