%chk=JID_6981.chk
%mem=8GB
%nprocshared=4
# opt freq B3LYP/6-31G(d) empiricaldispersion=gd3bj scf=xqc

CID_79155017_JID_6981_neutraal

0 1
C          1.06358        0.06910        0.03439
C          0.31840        0.54398        1.28521
C          0.75938        1.95185        1.69801
N         -1.15268        0.42955        1.17972
C         -1.73416       -0.87323        1.54972
C         -1.64449       -1.18071        3.04714
C         -2.53748       -2.34865        3.44635
O         -2.12486       -3.54531        2.80317
C         -1.82143        1.24738        0.26044
O         -1.23648        1.89161       -0.60852
N         -3.21105        1.28734        0.37609
C         -3.95894        1.83769       -0.75114
C         -4.16762        3.34402       -0.60449
C         -4.81733        3.67283        0.73956
C         -4.03585        3.04645        1.89439
C         -3.82886        1.54587        1.67661
H          0.90300        0.72790       -0.82350
H          0.74513       -0.93754       -0.25479
H          2.14216        0.03718        0.22347
H          0.62894       -0.11094        2.10647
H          0.57728        2.69331        0.91463
H          0.22217        2.27626        2.59594
H          1.83143        1.96702        1.92241
H         -2.77690       -0.93264        1.22288
H         -1.20547       -1.64285        0.97423
H         -0.60860       -1.42509        3.30772
H         -1.92516       -0.30034        3.63512
H         -2.46623       -2.51238        4.52629
H         -3.58855       -2.15556        3.20670
H         -2.51929       -3.56309        1.91444
H         -4.92672        1.32308       -0.78370
H         -3.44070        1.61586       -1.69081
H         -4.79458        3.71510       -1.42253
H         -3.20370        3.86246       -0.67395
H         -4.87197        4.75900        0.87161
H         -5.84701        3.29470        0.74914
H         -3.06017        3.54157        1.97730
H         -4.56635        3.21553        2.83787
H         -3.21397        1.16514        2.49282
H         -4.78872        1.01740        1.69995

--Link1--
%chk=JID_6981.chk
%mem=8GB
%nprocshared=4
# B3LYP/6-311++G(d,p) empiricaldispersion=gd3bj scf=xqc pop=npa geom=check

CID_79155017_JID_6981_Energie_neutraal

0 1

--Link1--
%chk=JID_6981.chk
%mem=8GB
%nprocshared=4
# B3LYP/6-311++G(d,p) empiricaldispersion=gd3bj scf=xqc pop=npa geom=check

CID_79155017_JID_6981_Energie_kation

1 2

--Link1--
%chk=JID_6981.chk
%mem=8GB
%nprocshared=4
# B3LYP/6-311++G(d,p) empiricaldispersion=gd3bj scf=xqc pop=npa geom=check

CID_79155017_JID_6981_Energie_anion

-1 2
