%chk=JID_10575.chk
%mem=8GB
%nprocshared=4
# opt freq B3LYP/6-31G(d) empiricaldispersion=gd3bj scf=xqc

CID_117438952_JID_10575_neutraal

0 1
C          0.33400        1.00600       -0.17300
C          1.21811       -0.23841        0.01005
C         -0.05109       -1.11581       -0.32011
C         -0.87053        0.12320        0.20416
C         -0.13008       -2.36095        0.58767
N         -1.47246       -2.94747        0.61885
C         -0.26416       -1.52839       -1.87720
C         -1.54583       -1.60196       -2.46065
C         -1.74243       -1.95415       -3.80129
C         -0.65275       -2.23990       -4.62526
C          0.62947       -2.17977       -4.07403
C          0.81318       -1.84291       -2.72787
C         -0.85408       -2.57683       -6.08381
C         -0.43835       -4.00858       -6.47884
N         -1.25439       -5.07297       -5.86716
C         -0.60133       -6.39565       -5.99160
C         -0.65580       -6.98529       -7.41062
O         -2.00531       -7.08376       -7.88159
C         -2.64823       -5.80350       -7.85503
C         -2.61109       -5.17869       -6.44802
H          0.30399        1.38200       -1.20207
H          0.54140        1.84024        0.50175
H          2.07252       -0.30047       -0.66777
H          1.59624       -0.34848        1.03455
H         -1.07651        0.10810        1.28181
H         -1.80045        0.36655       -0.31621
H          0.59148       -3.11809        0.25907
H          0.13649       -2.09536        1.61737
H         -1.46649       -3.75620        1.23929
H         -1.68606       -3.31955       -0.30834
H         -2.41998       -1.38514       -1.84787
H         -2.75626       -2.00063       -4.19133
H          1.50260       -2.39188       -4.68607
H          1.82871       -1.82150       -2.33934
H         -1.89192       -2.38278       -6.37817
H         -0.25471       -1.86774       -6.67071
H         -0.44902       -4.08217       -7.57250
H          0.60880       -4.14509       -6.17938
H         -1.12108       -7.08234       -5.31073
H          0.43601       -6.34935       -5.63990
H         -0.06847       -6.39059       -8.11956
H         -0.23599       -7.99636       -7.40452
H         -3.68851       -5.95452       -8.16110
H         -2.18073       -5.15176       -8.60146
H         -3.19948       -5.81780       -5.77640
H         -3.11979       -4.20966       -6.45477

--Link1--
%chk=JID_10575.chk
%mem=8GB
%nprocshared=4
# B3LYP/6-311++G(d,p) empiricaldispersion=gd3bj scf=xqc pop=npa geom=check

CID_117438952_JID_10575_Energie_neutraal

0 1

--Link1--
%chk=JID_10575.chk
%mem=8GB
%nprocshared=4
# B3LYP/6-311++G(d,p) empiricaldispersion=gd3bj scf=xqc pop=npa geom=check

CID_117438952_JID_10575_Energie_kation

1 2

--Link1--
%chk=JID_10575.chk
%mem=8GB
%nprocshared=4
# B3LYP/6-311++G(d,p) empiricaldispersion=gd3bj scf=xqc pop=npa geom=check

CID_117438952_JID_10575_Energie_anion

-1 2
