%chk=JID_5675.chk
%mem=8GB
%nprocshared=4
# opt freq B3LYP/6-31G(d) empiricaldispersion=gd3bj scf=xqc

CID_116168122_JID_5675_neutraal

0 1
C          0.93093       -0.00632       -0.07204
C          0.78866       -1.35309       -0.77843
C          2.08830       -1.78964       -1.47813
C          2.99782       -2.69998       -0.61579
C          2.13609       -3.93446       -0.23186
C          0.61936       -3.70294       -0.23413
N          0.27052       -2.35117        0.16304
N          3.72557       -1.89827        0.40479
C          5.06143       -1.42979       -0.07622
C          5.13527       -0.52799       -1.32246
O          4.47999        0.71736       -1.07947
C          4.50736        1.56122       -2.22057
C          3.85401       -2.37721        1.80158
C          2.54633       -2.44381        2.60062
C          4.71193       -3.63669        1.99811
H         -0.02154        0.30516        0.37147
H          1.22909        0.77115       -0.78405
H          1.67908       -0.03083        0.72433
H          0.03683       -1.21705       -1.56776
H          1.81578       -2.36280       -2.37710
H          2.60744       -0.91059       -1.86180
H          3.76679       -3.11498       -1.28300
H          2.44028       -4.39095        0.70739
H          2.33570       -4.72142       -0.97391
H          0.15293       -4.41605        0.45516
H          0.20333       -3.92283       -1.22564
H         -0.73752       -2.24480        0.26003
H          5.53240       -0.84796        0.72709
H          5.70345       -2.30048       -0.25942
H          6.19212       -0.32300       -1.53421
H          4.71970       -1.02668       -2.20373
H          5.53907        1.79310       -2.50160
H          3.98527        1.08980       -3.05875
H          3.99470        2.49417       -1.97150
H          4.39742       -1.58290        2.33527
H          1.92382       -3.30672        2.36665
H          2.77163       -2.50859        3.67228
H          1.95303       -1.53534        2.46322
H          5.75487       -3.45011        1.72126
H          4.71465       -3.93824        3.05162
H          4.36874       -4.49104        1.41233

--Link1--
%chk=JID_5675.chk
%mem=8GB
%nprocshared=4
# B3LYP/6-311++G(d,p) empiricaldispersion=gd3bj scf=xqc pop=npa geom=check

CID_116168122_JID_5675_Energie_neutraal

0 1

--Link1--
%chk=JID_5675.chk
%mem=8GB
%nprocshared=4
# B3LYP/6-311++G(d,p) empiricaldispersion=gd3bj scf=xqc pop=npa geom=check

CID_116168122_JID_5675_Energie_kation

1 2

--Link1--
%chk=JID_5675.chk
%mem=8GB
%nprocshared=4
# B3LYP/6-311++G(d,p) empiricaldispersion=gd3bj scf=xqc pop=npa geom=check

CID_116168122_JID_5675_Energie_anion

-1 2
