%chk=JID_10878.chk
%mem=8GB
%nprocshared=4
# opt freq B3LYP/6-31G(d) empiricaldispersion=gd3bj scf=xqc

CID_104347198_JID_10878_neutraal

0 1
C          0.97467       -0.09409        0.02248
C          0.73674       -1.53527        0.44650
C          1.75254       -2.54566       -0.13176
C          1.40205       -3.97589        0.31474
C          0.20753       -4.55720       -0.44006
C          0.40596       -4.49204       -1.95347
C          0.73718       -3.07817       -2.45038
C          1.93073       -2.50986       -1.66420
O         -0.35997       -2.18076       -2.25222
C         -1.29682       -2.13073       -3.25967
N         -1.34959       -3.10348       -4.17794
C         -2.33598       -3.00080       -5.08544
N         -3.24911       -2.00703       -5.11431
C         -3.15901       -1.05566       -4.16305
C         -2.17575       -1.07884       -3.20134
N         -4.06844        0.03945       -4.17365
N         -5.07994        0.01397       -5.16955
C         -2.44877       -4.08657       -6.13720
O         -1.78350       -3.78453       -7.37132
C         -2.48002       -2.81919       -8.14848
H          2.00410        0.21209        0.23321
H          0.30466        0.57332        0.57438
H          0.77785        0.05461       -1.04274
H          0.79547       -1.57966        1.54192
H         -0.29227       -1.80955        0.19517
H          2.72648       -2.29331        0.31024
H          2.27295       -4.62226        0.14452
H          1.20418       -4.00211        1.39289
H         -0.71040       -4.02646       -0.16372
H          0.06368       -5.60161       -0.13948
H         -0.50105       -4.87153       -2.43540
H          1.22365       -5.16801       -2.23377
H          1.02734       -3.10557       -3.50918
H          2.14066       -1.48651       -1.99377
H          2.82132       -3.10111       -1.91721
H         -2.08556       -0.31374       -2.44348
H         -4.42035        0.20416       -3.22732
H         -4.63002        0.15747       -6.07955
H         -5.44693       -0.94232       -5.23981
H         -1.98524       -4.99827       -5.74380
H         -3.50273       -4.32480       -6.32434
H         -3.52418       -3.11261       -8.29498
H         -2.42342       -1.83122       -7.68396
H         -1.99818       -2.76031       -9.12832

--Link1--
%chk=JID_10878.chk
%mem=8GB
%nprocshared=4
# B3LYP/6-311++G(d,p) empiricaldispersion=gd3bj scf=xqc pop=npa geom=check

CID_104347198_JID_10878_Energie_neutraal

0 1

--Link1--
%chk=JID_10878.chk
%mem=8GB
%nprocshared=4
# B3LYP/6-311++G(d,p) empiricaldispersion=gd3bj scf=xqc pop=npa geom=check

CID_104347198_JID_10878_Energie_kation

1 2

--Link1--
%chk=JID_10878.chk
%mem=8GB
%nprocshared=4
# B3LYP/6-311++G(d,p) empiricaldispersion=gd3bj scf=xqc pop=npa geom=check

CID_104347198_JID_10878_Energie_anion

-1 2
