%chk=JID_6414.chk
%mem=8GB
%nprocshared=4
# opt freq B3LYP/6-31G(d) empiricaldispersion=gd3bj scf=xqc

CID_60680310_JID_6414_neutraal

0 1
C          1.07546       -0.05485       -0.03601
C          0.51081        0.34523        1.33535
C          1.00456        1.75568        1.67572
C         -1.01917        0.27269        1.26962
O          1.05083       -0.63251        2.26036
C          0.72583       -0.58861        3.58095
O         -0.00625        0.23645        4.11264
C          1.38142       -1.73785        4.33889
N          0.68248       -3.00385        4.06305
C          1.14134       -4.09332        4.93485
C          0.61752       -4.05039        6.38400
C         -0.88257       -4.12301        6.45940
C         -1.68832       -5.24319        6.40395
C         -3.07351       -4.91779        6.47895
C         -3.27899       -3.56185        6.59714
S         -1.80938       -2.69075        6.62888
H          0.74132        0.62363       -0.82799
H          0.76972       -1.07376       -0.30109
H          2.17168       -0.05583       -0.02077
H          0.73407        2.47287        0.89341
H          0.58117        2.12130        2.61605
H          2.09364        1.76672        1.79745
H         -1.35327       -0.76003        1.11904
H         -1.48716        0.62239        2.19456
H         -1.41192        0.88861        0.45332
H          2.43516       -1.79520        4.04403
H          1.34986       -1.47764        5.40230
H         -0.32095       -2.86476        4.21249
H          0.81395       -5.03351        4.47391
H          2.23774       -4.12946        4.94295
H          1.03457       -4.90762        6.92841
H          0.98995       -3.15846        6.90140
H         -1.30423       -6.25133        6.30334
H         -3.87876       -5.64123        6.44506
H         -4.22206       -3.03766        6.66970

--Link1--
%chk=JID_6414.chk
%mem=8GB
%nprocshared=4
# B3LYP/6-311++G(d,p) empiricaldispersion=gd3bj scf=xqc pop=npa geom=check

CID_60680310_JID_6414_Energie_neutraal

0 1

--Link1--
%chk=JID_6414.chk
%mem=8GB
%nprocshared=4
# B3LYP/6-311++G(d,p) empiricaldispersion=gd3bj scf=xqc pop=npa geom=check

CID_60680310_JID_6414_Energie_kation

1 2

--Link1--
%chk=JID_6414.chk
%mem=8GB
%nprocshared=4
# B3LYP/6-311++G(d,p) empiricaldispersion=gd3bj scf=xqc pop=npa geom=check

CID_60680310_JID_6414_Energie_anion

-1 2
