%chk=JID_7590.chk
%mem=8GB
%nprocshared=4
# opt freq B3LYP/6-31G(d) empiricaldispersion=gd3bj scf=xqc

CID_116988373_JID_7590_neutraal

0 1
C          1.06473       -0.04453       -0.06186
C          0.68764       -0.45284        1.37705
C          1.22626        0.60949        2.36545
C         -0.85744       -0.53646        1.43781
C         -1.65816        0.60774        1.59705
C         -3.05610        0.52331        1.62971
C         -3.70662       -0.70771        1.49538
C         -2.92162       -1.85157        1.31474
C         -1.52534       -1.76431        1.27475
C         -5.21701       -0.77397        1.54540
C         -5.76622       -1.66674        2.67031
C         -6.65139       -2.68779        1.96815
N         -7.07680       -1.98397        0.75778
C         -5.86125       -1.32577        0.26388
C         -7.66074       -2.88140       -0.22852
N          1.26385       -1.76547        1.75666
C          2.67020       -1.98227        1.46587
H          0.56179        0.88399       -0.35879
H          0.77275       -0.81476       -0.78602
H          2.14058        0.13247       -0.16987
H          0.90130        1.62148        2.10082
H          0.88940        0.40990        3.38994
H          2.32078        0.64544        2.37501
H         -1.21360        1.59487        1.68735
H         -3.63178        1.43756        1.76016
H         -3.38499       -2.82877        1.19945
H         -0.95838       -2.67925        1.11097
H         -5.61114        0.23846        1.71455
H         -6.37251       -1.05523        3.35100
H         -4.99415       -2.15495        3.27403
H         -7.50040       -2.98045        2.59396
H         -6.06555       -3.58529        1.73136
H         -5.20547       -2.03845       -0.25188
H         -6.09888       -0.51883       -0.43801
H         -7.96126       -2.32277       -1.12151
H         -6.96957       -3.67446       -0.53607
H         -8.56463       -3.35199        0.17341
H          1.08728       -1.92020        2.74901
H          3.32187       -1.25524        1.95685
H          2.95820       -2.97312        1.83299
H          2.86929       -1.98194        0.39031

--Link1--
%chk=JID_7590.chk
%mem=8GB
%nprocshared=4
# B3LYP/6-311++G(d,p) empiricaldispersion=gd3bj scf=xqc pop=npa geom=check

CID_116988373_JID_7590_Energie_neutraal

0 1

--Link1--
%chk=JID_7590.chk
%mem=8GB
%nprocshared=4
# B3LYP/6-311++G(d,p) empiricaldispersion=gd3bj scf=xqc pop=npa geom=check

CID_116988373_JID_7590_Energie_kation

1 2

--Link1--
%chk=JID_7590.chk
%mem=8GB
%nprocshared=4
# B3LYP/6-311++G(d,p) empiricaldispersion=gd3bj scf=xqc pop=npa geom=check

CID_116988373_JID_7590_Energie_anion

-1 2
