%chk=JID_1167.chk
%mem=8GB
%nprocshared=4
# opt freq B3LYP/6-31G(d) empiricaldispersion=gd3bj scf=xqc

CID_150681804_JID_1167_neutraal

0 1
C         -1.50200        0.71300        0.14900
C         -1.17862       -0.70520        0.64625
N          0.16051       -0.88832        1.24452
C          0.74653        0.41003        1.62251
C          1.01845        0.99347        0.24250
C         -0.28690        1.47348       -0.42806
C         -0.20532        1.37923       -1.96152
C         -1.26334        2.16712       -2.61198
N         -2.10330        2.78999       -3.11465
O          1.54456       -0.12430       -0.50125
C          1.11295       -1.29343        0.20254
H         -1.87591        1.28924        1.00731
H         -2.33709        0.67587       -0.55948
H         -1.91737       -0.96180        1.41616
H         -1.35308       -1.42803       -0.16094
H          1.68371        0.23929        2.16761
H          0.10334        1.02387        2.26165
H          1.77033        1.78860        0.25480
H         -0.42533        2.52905       -0.15229
H          0.76454        1.76080       -2.30353
H         -0.27693        0.33543       -2.28919
H          0.71623       -2.02916       -0.50575
H          1.99823       -1.74684        0.66495

--Link1--
%chk=JID_1167.chk
%mem=8GB
%nprocshared=4
# B3LYP/6-311++G(d,p) empiricaldispersion=gd3bj scf=xqc pop=npa geom=check

CID_150681804_JID_1167_Energie_neutraal

0 1

--Link1--
%chk=JID_1167.chk
%mem=8GB
%nprocshared=4
# B3LYP/6-311++G(d,p) empiricaldispersion=gd3bj scf=xqc pop=npa geom=check

CID_150681804_JID_1167_Energie_kation

1 2

--Link1--
%chk=JID_1167.chk
%mem=8GB
%nprocshared=4
# B3LYP/6-311++G(d,p) empiricaldispersion=gd3bj scf=xqc pop=npa geom=check

CID_150681804_JID_1167_Energie_anion

-1 2
