%chk=JID_10472.chk
%mem=8GB
%nprocshared=4
# opt freq B3LYP/6-31G(d) empiricaldispersion=gd3bj scf=xqc

CID_143107213_JID_10472_neutraal

0 1
C          1.03496       -0.06254        0.06976
C         -0.05325        0.74051       -0.62579
C          0.11180        0.80331       -2.14585
C          0.03922       -0.54236       -2.87583
C         -1.31023       -1.24992       -2.71078
C         -1.48615       -2.44246       -3.65730
O         -0.79379       -3.60355       -3.18966
C          0.50998       -3.73866       -3.57946
C          1.42396       -4.15784       -2.60601
C          2.78474       -4.27874       -2.94253
C          3.25910       -4.00469       -4.23763
C          2.29693       -3.67435       -5.20901
C          0.94209       -3.54155       -4.88735
C          4.75006       -4.13350       -4.61822
C          4.88129       -5.51196       -5.33170
C          5.22347       -3.05371       -5.65047
C          4.94404       -1.58874       -5.32575
C          5.74172       -4.20394       -3.40782
C          5.85336       -2.97573       -2.51348
C          0.96859       -4.45153       -1.20360
H          0.98342       -1.12153       -0.19734
H          0.92002        0.01122        1.15593
H          2.02924        0.31287       -0.19195
H         -1.03539        0.33278       -0.36338
H         -0.02959        1.76535       -0.23571
H         -0.65921        1.46949       -2.55256
H          1.07621        1.27193       -2.37898
H          0.21811       -0.35530       -3.94205
H          0.85394       -1.18593       -2.53203
H         -1.42183       -1.59035       -1.67519
H         -2.11189       -0.53017       -2.91515
H         -2.54781       -2.71671       -3.65424
H         -1.25293       -2.17290       -4.69202
H          3.46870       -4.59631       -2.16066
H          2.58586       -3.51571       -6.24530
H          0.24307       -3.30327       -5.68164
H          4.25164       -5.57109       -6.22745
H          5.91472       -5.69767       -5.64730
H          4.58249       -6.33434       -4.67019
H          6.30320       -3.16570       -5.81810
H          4.76465       -3.25749       -6.62721
H          5.56092       -1.21752       -4.50780
H          5.18264       -0.97278       -6.20015
H          3.89636       -1.40478       -5.07686
H          5.48629       -5.06402       -2.77496
H          6.75084       -4.42500       -3.78275
H          4.88969       -2.49639       -2.32574
H          6.27840       -3.26243       -1.54530
H          6.53738       -2.23983       -2.94384
H          0.58207       -3.54257       -0.73273
H          0.18563       -5.21697       -1.21114
H          1.78894       -4.82813       -0.58381

--Link1--
%chk=JID_10472.chk
%mem=8GB
%nprocshared=4
# B3LYP/6-311++G(d,p) empiricaldispersion=gd3bj scf=xqc pop=npa geom=check

CID_143107213_JID_10472_Energie_neutraal

0 1

--Link1--
%chk=JID_10472.chk
%mem=8GB
%nprocshared=4
# B3LYP/6-311++G(d,p) empiricaldispersion=gd3bj scf=xqc pop=npa geom=check

CID_143107213_JID_10472_Energie_kation

1 2

--Link1--
%chk=JID_10472.chk
%mem=8GB
%nprocshared=4
# B3LYP/6-311++G(d,p) empiricaldispersion=gd3bj scf=xqc pop=npa geom=check

CID_143107213_JID_10472_Energie_anion

-1 2
