%chk=JID_148.chk
%mem=8GB
%nprocshared=4
# opt freq B3LYP/6-31G(d) empiricaldispersion=gd3bj scf=xqc

CID_84648462_JID_148_neutraal

0 1
C          1.03189        0.08762       -0.03614
C          1.24918       -1.04723       -0.97616
C          2.29854       -2.07982       -0.67271
C          0.83848       -2.48154       -0.68308
C          0.22082       -2.87148        0.65070
C         -1.25454       -2.47686        0.76156
C         -1.88009       -3.05155        2.00002
C         -3.37709       -3.19262        2.09051
C         -2.51427       -4.41791        1.96368
N          0.40711       -3.28482       -1.84292
H          0.01247        0.47193       -0.13804
H          1.72281        0.90334       -0.27257
H          1.19250       -0.19014        1.00964
H          1.16993       -0.70978       -2.00544
H          2.93000       -2.40919       -1.49116
H          2.81954       -2.02785        0.27643
H          0.32264       -3.95769        0.77620
H          0.77601       -2.42841        1.48700
H         -1.34633       -1.38573        0.79626
H         -1.80600       -2.80606       -0.12682
H         -1.35710       -2.75453        2.90288
H         -3.84823       -3.00213        3.04839
H         -3.98036       -2.90470        1.23705
H         -2.53876       -4.95800        1.02388
H         -2.40273       -5.05332        2.83499
H          0.54687       -4.27843       -1.66313
H         -0.58849       -3.16154       -2.02040

--Link1--
%chk=JID_148.chk
%mem=8GB
%nprocshared=4
# B3LYP/6-311++G(d,p) empiricaldispersion=gd3bj scf=xqc pop=npa geom=check

CID_84648462_JID_148_Energie_neutraal

0 1

--Link1--
%chk=JID_148.chk
%mem=8GB
%nprocshared=4
# B3LYP/6-311++G(d,p) empiricaldispersion=gd3bj scf=xqc pop=npa geom=check

CID_84648462_JID_148_Energie_kation

1 2

--Link1--
%chk=JID_148.chk
%mem=8GB
%nprocshared=4
# B3LYP/6-311++G(d,p) empiricaldispersion=gd3bj scf=xqc pop=npa geom=check

CID_84648462_JID_148_Energie_anion

-1 2
