%chk=JID_9369.chk
%mem=8GB
%nprocshared=4
# opt freq B3LYP/6-31G(d) empiricaldispersion=gd3bj scf=xqc

CID_90575126_JID_9369_neutraal

0 1
C          2.49200        0.00400       -0.01400
C          1.04656        0.13061       -0.46378
C          0.30962       -1.01028       -0.83192
C         -1.04901       -0.91934       -1.14309
C         -1.69520        0.31086       -1.07893
C         -0.97930        1.44595       -0.70647
C          0.38159        1.35365       -0.40540
O          0.98309        2.51382       -0.01963
C          2.40345        2.41644        0.00268
C          2.90844        1.70735        1.24871
C          3.34161        1.09909        2.31755
C          3.80199        0.44282        3.54349
N          4.11143        1.44482        4.53695
C          3.55001        1.67234        5.75337
O          3.94483        2.63611        6.41240
C          2.45921        0.76688        6.28090
C          1.06848        1.36534        6.08660
C          0.61034        1.37082        4.65606
C         -0.30270        0.53292        4.14957
H          2.55703       -0.48703        0.96384
H          2.73496       -0.94872       -0.54061
H          3.34643        0.45308       -0.53480
H          0.78502       -1.98867       -0.85854
H         -1.60438       -1.81181       -1.41965
H         -2.75459        0.38609       -1.30777
H         -1.48229        2.40723       -0.64174
H          2.82839        2.18950       -0.98284
H          2.73573        3.45550        0.14482
H          3.05582       -0.26851        3.89713
H          4.72735       -0.10864        3.34992
H          4.80999        2.13471        4.29089
H          2.52903       -0.24186        5.86736
H          2.64836        0.65061        7.35621
H          0.35788        0.79765        6.70044
H          1.04296        2.39631        6.46033
H          1.04255        2.12857        4.00381
H         -0.59442        0.60169        3.10454
H         -0.77886       -0.23183        4.75455

--Link1--
%chk=JID_9369.chk
%mem=8GB
%nprocshared=4
# B3LYP/6-311++G(d,p) empiricaldispersion=gd3bj scf=xqc pop=npa geom=check

CID_90575126_JID_9369_Energie_neutraal

0 1

--Link1--
%chk=JID_9369.chk
%mem=8GB
%nprocshared=4
# B3LYP/6-311++G(d,p) empiricaldispersion=gd3bj scf=xqc pop=npa geom=check

CID_90575126_JID_9369_Energie_kation

1 2

--Link1--
%chk=JID_9369.chk
%mem=8GB
%nprocshared=4
# B3LYP/6-311++G(d,p) empiricaldispersion=gd3bj scf=xqc pop=npa geom=check

CID_90575126_JID_9369_Energie_anion

-1 2
