%chk=JID_10146.chk
%mem=8GB
%nprocshared=4
# opt freq B3LYP/6-31G(d) empiricaldispersion=gd3bj scf=xqc

CID_28809628_JID_10146_neutraal

0 1
C          1.08825       -0.00774        0.04639
C          0.79538        1.44366        0.29051
C          1.51673        2.42908       -0.38338
C          1.23594        3.78764       -0.18016
C          0.19778        4.15973        0.71661
C         -0.15253        5.49194        0.99334
C         -1.18121        5.79025        1.89299
C         -1.86819        4.74202        2.50888
N         -1.53622        3.45387        2.25142
C         -0.54199        3.16708        1.38965
C         -0.23279        1.83361        1.15799
N         -2.90263        4.99876        3.43170
C         -3.08870        3.90636        4.41274
C         -4.17830        4.29961        5.43765
N         -5.47487        4.64099        4.81152
C         -5.24880        5.70978        3.81475
C         -4.17334        5.35500        2.75937
C         -1.47054        7.16247        2.17945
N         -1.68660        8.28956        2.36003
C          2.05186        4.81281       -0.92291
H          0.63402       -0.32774       -0.89643
H          0.69294       -0.63297        0.85379
H          2.16875       -0.17951        0.00026
H          2.30779        2.13418       -1.07146
H          0.38227        6.31212        0.51901
H         -0.81434        1.07517        1.67902
H         -3.39351        2.97553        3.91544
H         -2.15248        3.72022        4.95339
H         -3.83551        5.15344        6.03535
H         -4.33595        3.46865        6.13392
H         -5.81171        3.81444        4.31753
H         -4.96144        6.62963        4.33946
H         -6.19688        5.91890        3.30722
H         -4.04874        6.21791        2.09609
H         -4.52626        4.51384        2.14729
H          1.40584        5.42043       -1.56466
H          2.58374        5.45899       -0.21719
H          2.80328        4.34202       -1.56584

--Link1--
%chk=JID_10146.chk
%mem=8GB
%nprocshared=4
# B3LYP/6-311++G(d,p) empiricaldispersion=gd3bj scf=xqc pop=npa geom=check

CID_28809628_JID_10146_Energie_neutraal

0 1

--Link1--
%chk=JID_10146.chk
%mem=8GB
%nprocshared=4
# B3LYP/6-311++G(d,p) empiricaldispersion=gd3bj scf=xqc pop=npa geom=check

CID_28809628_JID_10146_Energie_kation

1 2

--Link1--
%chk=JID_10146.chk
%mem=8GB
%nprocshared=4
# B3LYP/6-311++G(d,p) empiricaldispersion=gd3bj scf=xqc pop=npa geom=check

CID_28809628_JID_10146_Energie_anion

-1 2
