%chk=JID_1018.chk
%mem=8GB
%nprocshared=4
# opt freq B3LYP/6-31G(d) empiricaldispersion=gd3bj scf=xqc

CID_220975_JID_1018_neutraal

0 1
C          1.09437        0.02341        0.02339
C          0.86118       -0.59487       -1.34631
C          1.27683       -2.06547       -1.43153
C          0.54543       -3.01594       -0.47799
C         -0.98010       -3.03454       -0.60582
C         -1.52820       -3.39210       -1.99712
C         -1.08374       -4.76072       -2.56369
C         -1.41684       -5.93380       -1.63631
C         -1.70361       -5.03222       -3.94460
O         -1.37859       -3.99965       -4.86603
O         -2.95761       -3.32863       -1.95166
H          0.44935       -0.42834        0.78265
H          0.87145        1.09484       -0.00549
H          2.13612       -0.09722        0.33680
H         -0.19117       -0.47719       -1.62636
H          1.44217       -0.03026       -2.08567
H          1.14080       -2.40787       -2.46410
H          2.35315       -2.13991       -1.23051
H          0.93615       -4.02875       -0.63187
H          0.80282       -2.75861        0.55653
H         -1.38765       -3.72749        0.14120
H         -1.38589       -2.05795       -0.31183
H         -1.22066       -2.60479       -2.69342
H          0.00501       -4.72744       -2.69569
H         -2.49319       -6.00791       -1.45031
H         -1.08946       -6.88059       -2.08002
H         -0.90863       -5.83960       -0.67230
H         -1.30857       -5.96792       -4.35470
H         -2.79377       -5.13107       -3.89562
H         -2.00124       -3.26952       -4.69377
H         -3.25851       -3.82751       -1.17249

--Link1--
%chk=JID_1018.chk
%mem=8GB
%nprocshared=4
# B3LYP/6-311++G(d,p) empiricaldispersion=gd3bj scf=xqc pop=npa geom=check

CID_220975_JID_1018_Energie_neutraal

0 1

--Link1--
%chk=JID_1018.chk
%mem=8GB
%nprocshared=4
# B3LYP/6-311++G(d,p) empiricaldispersion=gd3bj scf=xqc pop=npa geom=check

CID_220975_JID_1018_Energie_kation

1 2

--Link1--
%chk=JID_1018.chk
%mem=8GB
%nprocshared=4
# B3LYP/6-311++G(d,p) empiricaldispersion=gd3bj scf=xqc pop=npa geom=check

CID_220975_JID_1018_Energie_anion

-1 2
