%chk=JID_4909.chk
%mem=8GB
%nprocshared=4
# opt freq B3LYP/6-31G(d) empiricaldispersion=gd3bj scf=xqc

CID_107000596_JID_4909_neutraal

0 1
C          0.91931        0.05487        0.02186
C          0.50011        1.51221        0.13078
C          0.29703        1.98133        1.56664
N          0.46850        3.43895        1.55396
C          0.98184        3.82392        0.22712
C          1.48501        2.53463       -0.43381
N          2.87083        2.25218       -0.07685
C          3.99141        2.72962       -0.70031
O          5.09945        2.60462       -0.19430
C          3.82042        3.42996       -1.99940
C          4.91063        3.34575       -3.04713
C          3.58305        2.67957       -3.30589
C          3.55479        1.17213       -3.31385
C          2.66191        3.31519       -4.31438
H          0.12837       -0.59858        0.40495
H          1.82757       -0.15688        0.59512
H          1.10469       -0.21617       -1.02244
H         -0.45292        1.63208       -0.40496
H         -0.69108        1.69978        1.94547
H          1.04633        1.54903        2.23937
H         -0.42359        3.90326        1.72388
H          1.75705        4.59062        0.32028
H          0.15697        4.24084       -0.36322
H          1.39804        2.59712       -1.52153
H          3.06134        1.95118        0.87196
H          3.37217        4.41284       -1.88808
H          5.77627        2.72643       -2.83194
H          5.15982        4.25267       -3.58677
H          4.27514        0.73613       -2.61399
H          2.55793        0.80848       -3.04490
H          3.79684        0.79508       -4.31321
H          1.62532        3.01963       -4.12233
H          2.70987        4.40910       -4.28129
H          2.92868        2.99869       -5.32801

--Link1--
%chk=JID_4909.chk
%mem=8GB
%nprocshared=4
# B3LYP/6-311++G(d,p) empiricaldispersion=gd3bj scf=xqc pop=npa geom=check

CID_107000596_JID_4909_Energie_neutraal

0 1

--Link1--
%chk=JID_4909.chk
%mem=8GB
%nprocshared=4
# B3LYP/6-311++G(d,p) empiricaldispersion=gd3bj scf=xqc pop=npa geom=check

CID_107000596_JID_4909_Energie_kation

1 2

--Link1--
%chk=JID_4909.chk
%mem=8GB
%nprocshared=4
# B3LYP/6-311++G(d,p) empiricaldispersion=gd3bj scf=xqc pop=npa geom=check

CID_107000596_JID_4909_Energie_anion

-1 2
