%chk=JID_5909.chk
%mem=8GB
%nprocshared=4
# opt freq B3LYP/6-31G(d) empiricaldispersion=gd3bj scf=xqc

CID_79377956_JID_5909_neutraal

0 1
C          1.04176        0.06490        0.06359
C          0.68825        1.11320        1.11365
N          1.36228        2.38495        0.90263
C          0.66391        3.57105        1.40881
C          0.68433        3.76287        2.89240
C          0.78511        4.97808        3.56678
S          0.73987        4.61666        5.25211
N          0.61776        2.97219        5.00537
N          0.57971        2.64792        3.72742
N          0.90500        6.24117        3.08860
C          2.82494        2.44360        0.83309
C          3.76093        2.11200        2.04150
C          3.64566        0.68193        2.57057
C          5.21443        2.34670        1.59565
O          3.54021        3.02034        3.12226
H          0.85044        0.44077       -0.94720
H          0.42596       -0.82908        0.20841
H          2.08823       -0.24467        0.12412
H         -0.39726        1.26140        1.04462
H          0.86870        0.70765        2.11065
H          1.07814        4.45725        0.91255
H         -0.38517        3.53950        1.08656
H          1.20381        6.96699        3.73597
H          1.26752        6.39100        2.15097
H          3.13687        1.81085       -0.00824
H          3.07931        3.46065        0.50176
H          3.75776       -0.05710        1.77231
H          4.42190        0.48673        3.32071
H          2.70101        0.51251        3.09180
H          5.36075        3.38241        1.26747
H          5.91071        2.19003        2.42793
H          5.49851        1.67878        0.77576
H          2.74917        2.70454        3.60195

--Link1--
%chk=JID_5909.chk
%mem=8GB
%nprocshared=4
# B3LYP/6-311++G(d,p) empiricaldispersion=gd3bj scf=xqc pop=npa geom=check

CID_79377956_JID_5909_Energie_neutraal

0 1

--Link1--
%chk=JID_5909.chk
%mem=8GB
%nprocshared=4
# B3LYP/6-311++G(d,p) empiricaldispersion=gd3bj scf=xqc pop=npa geom=check

CID_79377956_JID_5909_Energie_kation

1 2

--Link1--
%chk=JID_5909.chk
%mem=8GB
%nprocshared=4
# B3LYP/6-311++G(d,p) empiricaldispersion=gd3bj scf=xqc pop=npa geom=check

CID_79377956_JID_5909_Energie_anion

-1 2
