%chk=JID_3847.chk
%mem=8GB
%nprocshared=4
# opt freq B3LYP/6-31G(d) empiricaldispersion=gd3bj scf=xqc

CID_60002050_JID_3847_neutraal

0 1
C          0.95964       -0.06119        0.06802
C          0.59588        0.66445       -1.21889
N          1.52057        0.26915       -2.27644
C          1.24546        0.90668       -3.56409
C          1.51824        2.40287       -3.59360
C          0.45250        3.33041       -3.68577
C          0.72636        4.70056       -3.66873
C          2.03579        5.14751       -3.55427
N          3.10042        4.27005       -3.47409
C          2.85390        2.89337       -3.51915
C          4.06371        2.01076       -3.42368
O          4.27801        4.74117       -3.35473
C         -0.98645        2.89819       -3.81184
H          0.89957       -1.14748       -0.05893
H          0.26891        0.22279        0.86854
H          1.97443        0.19127        0.39407
H         -0.43171        0.40378       -1.49502
H          0.64018        1.74302       -1.03406
H          2.47770        0.45222       -1.98543
H          1.86233        0.42776       -4.33383
H          0.22181        0.66923       -3.87117
H         -0.07401        5.43404       -3.73604
H          2.33283        6.18443       -3.51910
H          4.94528        2.47597       -3.87609
H          4.28599        1.79744       -2.37372
H          3.92416        1.06668       -3.95635
H         -1.28473        2.29382       -2.95053
H         -1.66339        3.75866       -3.85241
H         -1.13151        2.32833       -4.73514

--Link1--
%chk=JID_3847.chk
%mem=8GB
%nprocshared=4
# B3LYP/6-311++G(d,p) empiricaldispersion=gd3bj scf=xqc pop=npa geom=check

CID_60002050_JID_3847_Energie_neutraal

0 1

--Link1--
%chk=JID_3847.chk
%mem=8GB
%nprocshared=4
# B3LYP/6-311++G(d,p) empiricaldispersion=gd3bj scf=xqc pop=npa geom=check

CID_60002050_JID_3847_Energie_kation

1 2

--Link1--
%chk=JID_3847.chk
%mem=8GB
%nprocshared=4
# B3LYP/6-311++G(d,p) empiricaldispersion=gd3bj scf=xqc pop=npa geom=check

CID_60002050_JID_3847_Energie_anion

-1 2
