%chk=JID_3399.chk
%mem=8GB
%nprocshared=4
# opt freq B3LYP/6-31G(d) empiricaldispersion=gd3bj scf=xqc

CID_81171597_JID_3399_neutraal

0 1
C          1.04274        0.08862        0.01785
C          0.67583        0.53325       -1.40659
C          1.40409       -0.40331       -2.39579
C         -0.83917        0.36460       -1.61121
C          1.13174        1.98832       -1.71936
C          0.43451        3.15402       -0.99851
N          0.90829        3.33872        0.37319
C          0.25630        4.48079        1.03286
C         -1.15713        4.16644        1.40953
N         -2.18309        4.73771        0.76213
O         -3.32835        4.22613        1.34654
C         -2.98395        3.36348        2.33288
C         -1.61948        3.28890        2.42079
H          0.93230       -0.99651        0.13111
H          0.39027        0.54182        0.76924
H          2.08098        0.34064        0.25897
H          1.12150       -1.45023       -2.23625
H          1.15933       -0.15163       -3.43402
H          2.49142       -0.33077       -2.28022
H         -1.41401        0.92462       -0.86625
H         -1.14514        0.71034       -2.60477
H         -1.13446       -0.68709       -1.51978
H          2.21659        2.07056       -1.56427
H          0.98054        2.15945       -2.79509
H          0.66427        4.06637       -1.56373
H         -0.65049        3.02289       -1.04032
H          0.74135        2.50277        0.92261
H          0.81667        4.70790        1.94758
H          0.31521        5.37915        0.40664
H         -3.80619        2.90201        2.85896
H         -1.03871        2.68992        3.10532

--Link1--
%chk=JID_3399.chk
%mem=8GB
%nprocshared=4
# B3LYP/6-311++G(d,p) empiricaldispersion=gd3bj scf=xqc pop=npa geom=check

CID_81171597_JID_3399_Energie_neutraal

0 1

--Link1--
%chk=JID_3399.chk
%mem=8GB
%nprocshared=4
# B3LYP/6-311++G(d,p) empiricaldispersion=gd3bj scf=xqc pop=npa geom=check

CID_81171597_JID_3399_Energie_kation

1 2

--Link1--
%chk=JID_3399.chk
%mem=8GB
%nprocshared=4
# B3LYP/6-311++G(d,p) empiricaldispersion=gd3bj scf=xqc pop=npa geom=check

CID_81171597_JID_3399_Energie_anion

-1 2
