%chk=JID_6180.chk
%mem=8GB
%nprocshared=4
# opt freq B3LYP/6-31G(d) empiricaldispersion=gd3bj scf=xqc

CID_66225085_JID_6180_neutraal

0 1
C          1.05087       -0.04045       -0.07600
C          0.55753       -0.67462        1.23438
C          1.48782       -0.21396        2.37535
C         -0.86317       -0.16606        1.53391
C          0.59458       -2.22916        1.18543
C         -0.24760       -2.90528        0.10058
O          0.35845       -2.68726       -1.17763
C         -0.42925       -2.98339       -2.24752
O         -1.55215       -3.46737       -2.18479
C          0.27018       -2.57757       -3.52293
C         -0.09165       -3.44387       -4.73090
C          0.15368       -2.55757       -5.95399
C          0.55951       -1.18798       -5.41148
C         -0.00966       -1.13970       -3.98670
C         -1.48593       -0.69507       -4.02267
N         -2.06716       -0.53437       -2.69464
H          0.33992       -0.19197       -0.89222
H          2.01850       -0.45520       -0.37867
H          1.17584        1.04312        0.03460
H          1.49232        0.87802        2.46952
H          1.16851       -0.62773        3.33856
H          2.52024       -0.53579        2.19800
H         -1.55572       -0.38811        0.71576
H         -1.26219       -0.62204        2.44675
H         -0.87025        0.92092        1.67569
H          1.63783       -2.54844        1.05856
H          0.26191       -2.61636        2.15756
H         -0.26068       -3.98576        0.28513
H         -1.27856       -2.53769        0.11822
H          1.35146       -2.69581       -3.35724
H          0.52331       -4.34982       -4.76496
H         -1.13790       -3.76961       -4.70926
H         -0.76321       -2.48023       -6.54912
H          0.93235       -2.96976       -6.60387
H          0.20806       -0.37120       -6.04963
H          1.65439       -1.12402       -5.37100
H          0.56025       -0.42331       -3.38236
H         -1.54429        0.27589       -4.52890
H         -2.10320       -1.38966       -4.60275
H         -2.95257       -0.03379       -2.77920
H         -2.33498       -1.45512       -2.33091

--Link1--
%chk=JID_6180.chk
%mem=8GB
%nprocshared=4
# B3LYP/6-311++G(d,p) empiricaldispersion=gd3bj scf=xqc pop=npa geom=check

CID_66225085_JID_6180_Energie_neutraal

0 1

--Link1--
%chk=JID_6180.chk
%mem=8GB
%nprocshared=4
# B3LYP/6-311++G(d,p) empiricaldispersion=gd3bj scf=xqc pop=npa geom=check

CID_66225085_JID_6180_Energie_kation

1 2

--Link1--
%chk=JID_6180.chk
%mem=8GB
%nprocshared=4
# B3LYP/6-311++G(d,p) empiricaldispersion=gd3bj scf=xqc pop=npa geom=check

CID_66225085_JID_6180_Energie_anion

-1 2
