%chk=JID_1388.chk
%mem=8GB
%nprocshared=4
# opt freq B3LYP/6-31G(d) empiricaldispersion=gd3bj scf=xqc

CID_104317365_JID_1388_neutraal

0 1
C          0.94177        0.02754       -0.07649
C          0.13570        1.21200       -0.59209
C          0.52486        1.63834       -2.01574
C          0.28919        0.59155       -3.11787
N         -1.13628        0.34526       -3.31254
C         -1.52821       -0.81485       -4.10704
C         -1.20687       -2.14038       -3.39416
C         -0.74717       -2.68800       -4.76813
C         -0.56340       -1.22116       -5.23428
O         -1.70286       -3.48377       -5.49845
O         -1.25275        0.88685       -0.53662
H          0.70015       -0.89103       -0.62042
H          0.69627       -0.16649        0.97357
H          2.01724        0.21408       -0.14984
H          0.29710        2.06782        0.07391
H         -0.03987        2.54379       -2.27558
H          1.58568        1.91836       -2.02394
H          0.71208        0.99218       -4.04622
H          0.84196       -0.31843       -2.86777
H         -1.60211        0.40044       -2.39609
H         -2.57203       -0.76298       -4.44186
H         -2.07346       -2.64486       -2.95515
H         -0.40569       -2.13202       -2.64790
H          0.19901       -3.23766       -4.71016
H          0.48166       -0.90339       -5.17897
H         -0.92804       -1.00399       -6.24345
H         -2.51414       -2.94943       -5.54413
H         -1.47766        0.73989        0.39937

--Link1--
%chk=JID_1388.chk
%mem=8GB
%nprocshared=4
# B3LYP/6-311++G(d,p) empiricaldispersion=gd3bj scf=xqc pop=npa geom=check

CID_104317365_JID_1388_Energie_neutraal

0 1

--Link1--
%chk=JID_1388.chk
%mem=8GB
%nprocshared=4
# B3LYP/6-311++G(d,p) empiricaldispersion=gd3bj scf=xqc pop=npa geom=check

CID_104317365_JID_1388_Energie_kation

1 2

--Link1--
%chk=JID_1388.chk
%mem=8GB
%nprocshared=4
# B3LYP/6-311++G(d,p) empiricaldispersion=gd3bj scf=xqc pop=npa geom=check

CID_104317365_JID_1388_Energie_anion

-1 2
