%chk=JID_2445.chk
%mem=8GB
%nprocshared=4
# opt freq B3LYP/6-31G(d) empiricaldispersion=gd3bj scf=xqc

CID_22238780_JID_2445_neutraal

0 1
C          1.05313       -0.01540        0.08331
C          0.71129       -1.03692        1.15238
O          1.19560       -0.65692        2.43810
C          2.60398       -0.76736        2.62498
C          3.05643       -2.21183        2.74747
C          0.88127        1.50785       -4.27128
C         -0.38000        1.24447       -3.50382
C         -1.07326        0.03879       -3.66924
C         -2.22454       -0.22251       -2.92414
C         -2.68621        0.71356       -2.00084
C         -1.99566        1.91051       -1.81970
C         -0.84463        2.17330       -2.56446
H          0.74058        0.98754        0.39074
H          0.55746       -0.27104       -0.85661
H          2.12958        0.02379       -0.10584
H         -0.37894       -1.10108        1.23657
H          1.06658       -2.03378        0.87524
H          3.15121       -0.24612        1.83406
H          2.83392       -0.25036        3.56281
H          2.95827       -2.74219        1.79576
H          4.10609       -2.26044        3.05203
H          2.44787       -2.74813        3.48245
H          1.74510        1.14523       -3.70555
H          0.85960        1.00585       -5.24422
H          1.00598        2.57907       -4.46118
H         -0.72004       -0.70464       -4.37996
H         -2.75980       -1.15819       -3.06266
H         -3.58176        0.50960       -1.42006
H         -2.35099        2.63840       -1.09514
H         -0.31082        3.10749       -2.40524

--Link1--
%chk=JID_2445.chk
%mem=8GB
%nprocshared=4
# B3LYP/6-311++G(d,p) empiricaldispersion=gd3bj scf=xqc pop=npa geom=check

CID_22238780_JID_2445_Energie_neutraal

0 1

--Link1--
%chk=JID_2445.chk
%mem=8GB
%nprocshared=4
# B3LYP/6-311++G(d,p) empiricaldispersion=gd3bj scf=xqc pop=npa geom=check

CID_22238780_JID_2445_Energie_kation

1 2

--Link1--
%chk=JID_2445.chk
%mem=8GB
%nprocshared=4
# B3LYP/6-311++G(d,p) empiricaldispersion=gd3bj scf=xqc pop=npa geom=check

CID_22238780_JID_2445_Energie_anion

-1 2
