%chk=JID_10567.chk
%mem=8GB
%nprocshared=4
# opt freq B3LYP/6-31G(d) empiricaldispersion=gd3bj scf=xqc

CID_64041230_JID_10567_neutraal

0 1
C         -0.02900        0.88300        0.00000
C         -1.11642       -0.04415       -0.46965
C          0.23690       -0.58798       -0.11358
N          1.16889       -1.22194       -1.08735
C          1.40038       -2.67323       -0.77138
C          0.18852       -3.57115       -1.03968
O          0.16714       -4.02878       -2.38787
S          1.12812       -0.76389       -2.71783
O          0.17314       -1.62842       -3.38709
O          0.99260        0.67211       -2.84070
C          2.75189       -1.17896       -3.33350
C          3.85068       -0.25489       -2.83662
S          4.77032       -0.91697       -1.39616
C          4.09500       -0.01923       -0.00604
C          3.93775       -0.71887        1.19624
C          3.41786       -0.08419        2.32394
C          3.08238        1.26746        2.26690
C          3.31163        2.00644        1.10511
C          3.77791        1.34381       -0.03779
N          2.86685        3.33201        1.01956
H         -0.11108        1.30472        0.99583
H          0.41561        1.56944       -0.70747
H         -1.93775       -0.24569        0.20790
H         -1.41519        0.02084       -1.50865
H          0.31645       -1.07090        0.86098
H          2.27454       -3.03846       -1.31567
H          1.66250       -2.74041        0.29185
H          0.26363       -4.46584       -0.41344
H         -0.76454       -3.08424       -0.81299
H         -0.08701       -3.25490       -2.94023
H          2.95356       -2.24162       -3.18425
H          2.65766       -1.03783       -4.41859
H          4.60911       -0.19816       -3.62652
H          3.50749        0.76885       -2.68609
H          4.20340       -1.77149        1.26012
H          3.26863       -0.64300        3.24366
H          2.64896        1.74409        3.14200
H          3.90929        1.91899       -0.94798
H          3.31329        3.87184        0.28453
H          2.85965        3.82335        1.90768

--Link1--
%chk=JID_10567.chk
%mem=8GB
%nprocshared=4
# B3LYP/6-311++G(d,p) empiricaldispersion=gd3bj scf=xqc pop=npa geom=check

CID_64041230_JID_10567_Energie_neutraal

0 1

--Link1--
%chk=JID_10567.chk
%mem=8GB
%nprocshared=4
# B3LYP/6-311++G(d,p) empiricaldispersion=gd3bj scf=xqc pop=npa geom=check

CID_64041230_JID_10567_Energie_kation

1 2

--Link1--
%chk=JID_10567.chk
%mem=8GB
%nprocshared=4
# B3LYP/6-311++G(d,p) empiricaldispersion=gd3bj scf=xqc pop=npa geom=check

CID_64041230_JID_10567_Energie_anion

-1 2
