%chk=JID_9282.chk
%mem=8GB
%nprocshared=4
# opt freq B3LYP/6-31G(d) empiricaldispersion=gd3bj scf=xqc

CID_61675884_JID_9282_neutraal

0 1
C          0.98376       -0.07757        0.06098
C          0.66572       -1.10336       -1.03725
C         -0.82835       -1.02951       -1.36631
C         -1.22011       -2.10972       -2.36468
C         -0.61168       -3.43005       -1.98158
C          0.44988       -3.48673       -1.07807
O          1.01295       -2.38797       -0.48791
C          0.99335       -4.71886       -0.70898
C          0.52287       -5.91131       -1.26657
C         -0.50823       -5.85619       -2.19998
C         -1.06931       -4.62432       -2.55631
O          1.13240       -7.03185       -0.78380
C          0.94383       -8.29041       -1.42506
C          0.26816       -9.26261       -0.45589
C         -1.16026       -8.87091       -0.07605
C         -2.07753       -8.99659       -1.21545
N         -2.78020       -9.09085       -2.13399
O         -2.64525       -2.18339       -2.39542
C          1.56424       -0.80889       -2.24843
H          0.40614       -0.28657        0.96897
H          0.76242        0.94457       -0.26351
H          2.03968       -0.12915        0.35111
H         -1.41531       -1.16867       -0.44650
H         -1.10918       -0.04254       -1.75481
H         -0.88332       -1.83773       -3.37108
H          1.80362       -4.74777        0.01581
H         -0.92236       -6.74087       -2.66975
H         -1.87710       -4.60281       -3.28720
H          0.43102       -8.24467       -2.38877
H          1.94731       -8.67455       -1.64439
H          0.27839      -10.26917       -0.89150
H          0.85954       -9.30105        0.46768
H         -1.50425       -9.53314        0.72720
H         -1.19140       -7.85254        0.32519
H         -2.91886       -2.78033       -1.67692
H          1.34205        0.17234       -2.68060
H          2.62125       -0.82764       -1.95815
H          1.45789       -1.56277       -3.03495

--Link1--
%chk=JID_9282.chk
%mem=8GB
%nprocshared=4
# B3LYP/6-311++G(d,p) empiricaldispersion=gd3bj scf=xqc pop=npa geom=check

CID_61675884_JID_9282_Energie_neutraal

0 1

--Link1--
%chk=JID_9282.chk
%mem=8GB
%nprocshared=4
# B3LYP/6-311++G(d,p) empiricaldispersion=gd3bj scf=xqc pop=npa geom=check

CID_61675884_JID_9282_Energie_kation

1 2

--Link1--
%chk=JID_9282.chk
%mem=8GB
%nprocshared=4
# B3LYP/6-311++G(d,p) empiricaldispersion=gd3bj scf=xqc pop=npa geom=check

CID_61675884_JID_9282_Energie_anion

-1 2
