%chk=JID_3209.chk
%mem=8GB
%nprocshared=4
# opt freq B3LYP/6-31G(d) empiricaldispersion=gd3bj scf=xqc

CID_20243441_JID_3209_neutraal

0 1
C          1.02902        0.06689        0.06844
C          0.72084        1.44557       -0.54315
C          1.20793        1.46723       -2.00123
C         -0.80314        1.69211       -0.52535
O         -1.29300        1.76357        0.81178
C          1.45835        2.54657        0.25143
O          1.14610        2.52126        1.63926
C         -0.47566       -1.81469        3.70539
C         -0.01473       -3.18490        3.21628
C          1.37776       -3.12453        2.59477
C          2.39248       -2.49387        3.54431
C          1.93335       -1.12337        4.03434
C          0.53973       -1.18298        4.65367
H          2.10728       -0.12843        0.07621
H          0.55077       -0.73449       -0.50611
H          0.67045       -0.01049        1.09890
H          0.70193        0.70104       -2.59942
H          1.01283        2.43867       -2.46918
H          2.28569        1.27855       -2.06173
H         -1.04978        2.63713       -1.02194
H         -1.33424        0.88486       -1.04233
H         -2.26381        1.82544        0.75305
H          2.54391        2.43053        0.16047
H          1.20130        3.54024       -0.13233
H          0.18732        2.31916        1.70236
H         -1.44262       -1.91067        4.21199
H         -0.63235       -1.15358        2.84478
H         -0.00680       -3.88785        4.05841
H         -0.72947       -3.57408        2.48243
H          1.33756       -2.54395        1.66559
H          1.70468       -4.13489        2.32431
H          3.36065       -2.39969        3.03972
H          2.54427       -3.15583        4.40581
H          1.93025       -0.41778        3.19512
H          2.64732       -0.73743        4.77065
H          0.21289       -0.17254        4.92385
H          0.57984       -1.76492        5.58274

--Link1--
%chk=JID_3209.chk
%mem=8GB
%nprocshared=4
# B3LYP/6-311++G(d,p) empiricaldispersion=gd3bj scf=xqc pop=npa geom=check

CID_20243441_JID_3209_Energie_neutraal

0 1

--Link1--
%chk=JID_3209.chk
%mem=8GB
%nprocshared=4
# B3LYP/6-311++G(d,p) empiricaldispersion=gd3bj scf=xqc pop=npa geom=check

CID_20243441_JID_3209_Energie_kation

1 2

--Link1--
%chk=JID_3209.chk
%mem=8GB
%nprocshared=4
# B3LYP/6-311++G(d,p) empiricaldispersion=gd3bj scf=xqc pop=npa geom=check

CID_20243441_JID_3209_Energie_anion

-1 2
