%chk=JID_5451.chk
%mem=8GB
%nprocshared=4
# opt freq B3LYP/6-31G(d) empiricaldispersion=gd3bj scf=xqc

CID_105753945_JID_5451_neutraal

0 1
C         -1.74700        0.00400       -0.45100
C         -0.51122        0.13205        0.45796
C          0.49582        1.20710       -0.06011
C          1.22783        0.09218       -0.83113
C          0.57258       -0.93811        0.11000
C         -0.96859        0.26732        1.91526
N          0.17156        0.43047        2.79148
C          0.22478        1.10571        3.98382
O          1.22288        1.01080        4.69189
C         -0.92484        1.99860        4.38493
C         -0.53417        3.36128        4.98596
C         -1.07163        3.31150        3.59705
C         -2.15108        1.35405        4.95486
S         -2.07817        0.60584        6.43424
N         -3.31689        1.41180        4.24538
H         -2.39554        0.88117       -0.34924
H         -1.47616       -0.08412       -1.50851
H         -2.33208       -0.88308       -0.18445
H          0.07393        2.00419       -0.67993
H          1.12329        1.67319        0.70805
H          2.31972        0.13504       -0.79536
H          0.91461       -0.00103       -1.87699
H          1.22992       -1.24006        0.93143
H          0.21128       -1.84804       -0.37935
H         -1.63981        1.12249        2.01593
H         -1.50347       -0.63023        2.24370
H          0.96092       -0.19654        2.69338
H         -1.16111        3.78265        5.76404
H          0.52199        3.57033        5.12435
H         -0.37751        3.49971        2.78418
H         -2.05358        3.73877        3.43601
H         -3.40881        1.90684        3.36923
H         -4.15485        1.01450        4.65510

--Link1--
%chk=JID_5451.chk
%mem=8GB
%nprocshared=4
# B3LYP/6-311++G(d,p) empiricaldispersion=gd3bj scf=xqc pop=npa geom=check

CID_105753945_JID_5451_Energie_neutraal

0 1

--Link1--
%chk=JID_5451.chk
%mem=8GB
%nprocshared=4
# B3LYP/6-311++G(d,p) empiricaldispersion=gd3bj scf=xqc pop=npa geom=check

CID_105753945_JID_5451_Energie_kation

1 2

--Link1--
%chk=JID_5451.chk
%mem=8GB
%nprocshared=4
# B3LYP/6-311++G(d,p) empiricaldispersion=gd3bj scf=xqc pop=npa geom=check

CID_105753945_JID_5451_Energie_anion

-1 2
