%chk=JID_3076.chk
%mem=8GB
%nprocshared=4
# opt freq B3LYP/6-31G(d) empiricaldispersion=gd3bj scf=xqc

CID_144580556_JID_3076_neutraal

0 1
C          1.06851        0.01526        0.07123
C          0.63185        0.43495       -1.33929
C          1.25615       -0.52789       -2.35611
C         -0.89898        0.38998       -1.41462
O          1.12362        1.77374       -1.49939
C          0.89208        2.39866       -2.75258
C         -2.25861       -2.29867        2.04646
O         -2.22013       -1.66024        3.31267
C         -0.96107       -1.06421        3.63405
C          0.08986       -2.08428        4.08230
N          0.86167       -2.63353        2.98306
C          2.05481       -3.26869        3.16981
O          2.57858       -3.95353        2.30310
H          0.73893       -1.00021        0.31396
H          0.66389        0.70075        0.82485
H          2.15958        0.05689        0.16963
H          1.00778       -1.56948       -2.12506
H          0.90189       -0.32451       -3.37227
H          2.34685       -0.42471       -2.37263
H         -1.34410        1.14244       -0.75405
H         -1.25873        0.60350       -2.42656
H         -1.28460       -0.59516       -1.13093
H          1.40379        1.86998       -3.56053
H         -0.17598        2.48469       -2.96574
H          1.30532        3.41035       -2.70331
H         -3.30400       -2.50736        1.80237
H         -1.72780       -3.25291        2.08382
H         -1.84207       -1.65648        1.26501
H         -0.60879       -0.43858        2.80626
H         -1.16449       -0.39752        4.47923
H          0.79852       -1.60498        4.76707
H         -0.37599       -2.92604        4.60582
H          0.40161       -2.89940        2.12206
H          2.51060       -3.09161        4.15755

--Link1--
%chk=JID_3076.chk
%mem=8GB
%nprocshared=4
# B3LYP/6-311++G(d,p) empiricaldispersion=gd3bj scf=xqc pop=npa geom=check

CID_144580556_JID_3076_Energie_neutraal

0 1

--Link1--
%chk=JID_3076.chk
%mem=8GB
%nprocshared=4
# B3LYP/6-311++G(d,p) empiricaldispersion=gd3bj scf=xqc pop=npa geom=check

CID_144580556_JID_3076_Energie_kation

1 2

--Link1--
%chk=JID_3076.chk
%mem=8GB
%nprocshared=4
# B3LYP/6-311++G(d,p) empiricaldispersion=gd3bj scf=xqc pop=npa geom=check

CID_144580556_JID_3076_Energie_anion

-1 2
