%chk=JID_8154.chk
%mem=8GB
%nprocshared=4
# opt freq B3LYP/6-31G(d) empiricaldispersion=gd3bj scf=xqc

CID_152713929_JID_8154_neutraal

0 1
C          1.06407       -0.03801       -0.06671
C          0.53259       -0.35393        1.34538
C          0.78513        0.88371        2.23350
C         -1.00019       -0.59937        1.31243
N         -1.37395       -1.88636        0.75995
C         -2.48530       -2.63945        0.96748
O         -2.62660       -3.67993        0.32480
C         -3.49131       -2.23625        2.02252
C         -3.25972       -2.99584        3.33402
C         -2.46815       -2.20319        4.37281
O         -3.20430       -1.02592        4.69414
N         -2.51329       -0.16678        5.57924
O         -3.16415        0.83278        5.87573
O         -1.37307       -0.49571        5.90893
C          1.29988       -1.54869        1.96899
N          1.32419       -2.69845        1.05067
N          1.48075       -3.81249        1.58334
N          1.62205       -4.82817        2.07994
H          0.59746        0.86897       -0.46798
H          0.85992       -0.84794       -0.77441
H          2.14746        0.12639       -0.05092
H          0.24852        1.76045        1.85381
H          0.45023        0.70688        3.26217
H          1.85114        1.13517        2.27029
H         -1.41288       -0.51603        2.31973
H         -1.50077        0.16483        0.70581
H         -0.78572       -2.26158        0.02081
H         -3.52135       -1.15169        2.15391
H         -4.47510       -2.51318        1.62160
H         -4.24222       -3.22547        3.76504
H         -2.75344       -3.95074        3.14987
H         -2.35188       -2.81696        5.27436
H         -1.47687       -1.96237        3.97564
H          2.33771       -1.26127        2.17898
H          0.83895       -1.82464        2.92682

--Link1--
%chk=JID_8154.chk
%mem=8GB
%nprocshared=4
# B3LYP/6-311++G(d,p) empiricaldispersion=gd3bj scf=xqc pop=npa geom=check

CID_152713929_JID_8154_Energie_neutraal

0 1

--Link1--
%chk=JID_8154.chk
%mem=8GB
%nprocshared=4
# B3LYP/6-311++G(d,p) empiricaldispersion=gd3bj scf=xqc pop=npa geom=check

CID_152713929_JID_8154_Energie_kation

1 2

--Link1--
%chk=JID_8154.chk
%mem=8GB
%nprocshared=4
# B3LYP/6-311++G(d,p) empiricaldispersion=gd3bj scf=xqc pop=npa geom=check

CID_152713929_JID_8154_Energie_anion

-1 2
