%chk=JID_3776.chk
%mem=8GB
%nprocshared=4
# opt freq B3LYP/6-31G(d) empiricaldispersion=gd3bj scf=xqc

CID_87830970_JID_3776_neutraal

0 1
C          1.06060        0.00605        0.07931
C          0.79446        1.41437        0.50153
C         -0.16411        2.18739       -0.03173
C         -0.43462        3.60300        0.39447
C         -0.05151        4.63888       -0.66819
C         -0.78843        4.52213       -2.00804
C         -2.31533        4.62198       -1.93375
C         -2.86341        5.91608       -1.32340
C         -2.42491        7.21092       -2.01572
C         -2.76207        7.31057       -3.50713
C         -4.24775        7.17122       -3.86259
C         -5.20284        8.15245       -3.18188
S         -4.90594        9.88362       -3.64647
H          0.38052       -0.32500       -0.71186
H          0.94359       -0.66728        0.93389
H          2.08594       -0.08378       -0.29216
H          1.43575        1.81001        1.28618
H         -0.80553        1.78280       -0.81205
H         -1.49436        3.69678        0.65645
H          0.12242        3.83150        1.31205
H         -0.21053        5.64061       -0.25180
H          1.02617        4.56402       -0.86438
H         -0.40540        5.29824       -2.68121
H         -0.52734        3.56941       -2.48450
H         -2.71861        4.49943       -2.94598
H         -2.70818        3.77445       -1.35965
H         -3.95851        5.85977       -1.32016
H         -2.57057        5.97171       -0.26812
H         -2.87476        8.05764       -1.48383
H         -1.34190        7.33584       -1.89774
H         -2.38207        8.26721       -3.88449
H         -2.20448        6.54248       -4.05648
H         -4.35304        7.26002       -4.95182
H         -4.57592        6.15328       -3.61948
H         -6.22946        7.90859       -3.47494
H         -5.15082        8.06568       -2.09279
H         -3.71900       10.01138       -3.03605

--Link1--
%chk=JID_3776.chk
%mem=8GB
%nprocshared=4
# B3LYP/6-311++G(d,p) empiricaldispersion=gd3bj scf=xqc pop=npa geom=check

CID_87830970_JID_3776_Energie_neutraal

0 1

--Link1--
%chk=JID_3776.chk
%mem=8GB
%nprocshared=4
# B3LYP/6-311++G(d,p) empiricaldispersion=gd3bj scf=xqc pop=npa geom=check

CID_87830970_JID_3776_Energie_kation

1 2

--Link1--
%chk=JID_3776.chk
%mem=8GB
%nprocshared=4
# B3LYP/6-311++G(d,p) empiricaldispersion=gd3bj scf=xqc pop=npa geom=check

CID_87830970_JID_3776_Energie_anion

-1 2
