%chk=JID_5110.chk
%mem=8GB
%nprocshared=4
# opt freq B3LYP/6-31G(d) empiricaldispersion=gd3bj scf=xqc

CID_92171356_JID_5110_neutraal

0 1
C          0.97115        0.07196        0.06316
C          0.30569       -1.23863       -0.32678
C          0.87845       -2.45593        0.40289
C          0.75030       -2.43649        1.92726
C         -0.66683       -2.31887        2.50714
C         -1.65203       -3.47785        2.26168
C         -1.06798       -4.84424        2.64340
O         -0.19070       -5.44327        2.03730
N         -1.71094       -5.33009        3.73503
C         -2.77909       -4.55932        4.04740
O         -3.63124       -4.85323        4.86691
N         -2.74238       -3.42864        3.25449
C         -3.80801       -2.44707        3.23161
C         -2.18298       -3.51426        0.83271
O         -3.01581       -2.73184        0.37863
H          0.76228        0.33297        1.10477
H          0.59324        0.88588       -0.56394
H          2.05612        0.01760       -0.07050
H         -0.77279       -1.15911       -0.16027
H          0.44187       -1.38952       -1.40457
H          0.41475       -3.36330        0.00359
H          1.94463       -2.53866        0.15454
H          1.23845       -3.33072        2.33126
H          1.34037       -1.59648        2.31531
H         -0.54145       -2.19844        3.59315
H         -1.11584       -1.37798        2.16526
H         -1.55857       -6.24290        4.12965
H         -4.33597       -2.44912        4.18960
H         -3.39215       -1.45325        3.05133
H         -4.52202       -2.70981        2.44718
H         -1.73468       -4.27809        0.17356

--Link1--
%chk=JID_5110.chk
%mem=8GB
%nprocshared=4
# B3LYP/6-311++G(d,p) empiricaldispersion=gd3bj scf=xqc pop=npa geom=check

CID_92171356_JID_5110_Energie_neutraal

0 1

--Link1--
%chk=JID_5110.chk
%mem=8GB
%nprocshared=4
# B3LYP/6-311++G(d,p) empiricaldispersion=gd3bj scf=xqc pop=npa geom=check

CID_92171356_JID_5110_Energie_kation

1 2

--Link1--
%chk=JID_5110.chk
%mem=8GB
%nprocshared=4
# B3LYP/6-311++G(d,p) empiricaldispersion=gd3bj scf=xqc pop=npa geom=check

CID_92171356_JID_5110_Energie_anion

-1 2
