%chk=JID_3811.chk
%mem=8GB
%nprocshared=4
# opt freq B3LYP/6-31G(d) empiricaldispersion=gd3bj scf=xqc

CID_14190625_JID_3811_neutraal

0 1
C          0.96783       -0.05225        0.07896
C          0.30980        1.23639        0.49288
C         -0.56155        1.91799       -0.27950
C         -1.09495        1.53852       -1.62843
O         -2.52149        1.59262       -1.60348
C         -3.10183        0.40187       -1.08527
C          0.72249        1.79104        1.84666
C          0.04006        1.12235        3.04900
C          0.58662       -0.23950        3.38712
C          1.59288       -0.53322        4.23774
C          2.39657        0.50816        4.97319
C          2.05369       -1.94652        4.52510
O          1.15284       -2.91976        4.01852
H          1.00739       -0.17305       -1.00691
H          0.43296       -0.90909        0.49778
H          2.00573       -0.08516        0.42728
H         -0.96719        2.85804        0.09305
H         -0.75852        2.28758       -2.35308
H         -0.75944        0.56260       -1.98998
H         -2.83224       -0.45771       -1.70656
H         -2.79136        0.23143       -0.05020
H         -4.18913        0.51550       -1.10527
H          1.81456        1.74373        1.94541
H          0.47829        2.86151        1.88472
H          0.12653        1.78324        3.91940
H         -1.03837        1.02927        2.86708
H          0.08654       -1.05438        2.86503
H          2.22005        0.42778        6.05076
H          3.46558        0.35876        4.78629
H          2.16261        1.53168        4.67060
H          3.03426       -2.12013        4.07069
H          2.14177       -2.10773        5.60481
H          0.30071       -2.75388        4.45614

--Link1--
%chk=JID_3811.chk
%mem=8GB
%nprocshared=4
# B3LYP/6-311++G(d,p) empiricaldispersion=gd3bj scf=xqc pop=npa geom=check

CID_14190625_JID_3811_Energie_neutraal

0 1

--Link1--
%chk=JID_3811.chk
%mem=8GB
%nprocshared=4
# B3LYP/6-311++G(d,p) empiricaldispersion=gd3bj scf=xqc pop=npa geom=check

CID_14190625_JID_3811_Energie_kation

1 2

--Link1--
%chk=JID_3811.chk
%mem=8GB
%nprocshared=4
# B3LYP/6-311++G(d,p) empiricaldispersion=gd3bj scf=xqc pop=npa geom=check

CID_14190625_JID_3811_Energie_anion

-1 2
