%chk=JID_10848.chk
%mem=8GB
%nprocshared=4
# opt freq B3LYP/6-31G(d) empiricaldispersion=gd3bj scf=xqc

CID_63101912_JID_10848_neutraal

0 1
C         -0.02900        0.88300        0.00000
C         -0.48130       -0.42843        0.57468
C          0.99079       -0.16749        0.36504
C          1.72752       -0.89419       -0.71860
N          3.11807       -0.44553       -0.86300
C          3.84843       -1.28273       -1.85261
C          3.40239       -1.03233       -3.30145
O          3.89905       -0.11525       -3.96729
N          2.35346       -1.70748       -3.86548
C          1.66109       -2.85956       -3.47287
C          0.29518       -2.91848       -3.77303
C         -0.46890       -4.02298       -3.39308
C          0.13898       -5.09939       -2.75019
C          1.51395       -5.07412       -2.49933
C          2.27363       -3.95342       -2.86222
C          2.15230       -6.20457       -1.88991
N          2.67226       -7.11882       -1.40217
C          3.25575        1.00148       -1.12930
C          3.49755        1.94110        0.02359
C          4.59573        1.66901       -0.95674
H         -0.08550        1.76461        0.62879
H         -0.22893        1.07751       -1.04723
H         -0.85302       -0.43282        1.59349
H         -0.98424       -1.12745       -0.08321
H          1.58664       -0.03807        1.26149
H          1.71980       -1.95837       -0.45421
H          1.17748       -0.77641       -1.65700
H          4.92000       -1.05100       -1.80426
H          3.78492       -2.32928       -1.56250
H          1.98111       -1.19399       -4.65738
H         -0.20060       -2.08368       -4.26485
H         -1.53702       -4.04228       -3.59823
H         -0.46117       -5.96128       -2.46327
H          3.35018       -3.98245       -2.71854
H          2.63732        1.38543       -1.93992
H          3.01394        2.90977       -0.00616
H          3.60055        1.52555        1.01899
H          5.43673        1.07751       -0.61580
H          4.85945        2.44775       -1.66272

--Link1--
%chk=JID_10848.chk
%mem=8GB
%nprocshared=4
# B3LYP/6-311++G(d,p) empiricaldispersion=gd3bj scf=xqc pop=npa geom=check

CID_63101912_JID_10848_Energie_neutraal

0 1

--Link1--
%chk=JID_10848.chk
%mem=8GB
%nprocshared=4
# B3LYP/6-311++G(d,p) empiricaldispersion=gd3bj scf=xqc pop=npa geom=check

CID_63101912_JID_10848_Energie_kation

1 2

--Link1--
%chk=JID_10848.chk
%mem=8GB
%nprocshared=4
# B3LYP/6-311++G(d,p) empiricaldispersion=gd3bj scf=xqc pop=npa geom=check

CID_63101912_JID_10848_Energie_anion

-1 2
