%chk=JID_8592.chk
%mem=8GB
%nprocshared=4
# opt freq B3LYP/6-31G(d) empiricaldispersion=gd3bj scf=xqc

CID_107857507_JID_8592_neutraal

0 1
C         -0.77200       -1.26700        0.18100
C          0.48123       -1.09465       -0.68638
N          1.33120        0.00384       -0.14444
C          0.63203        1.31966       -0.19255
C         -0.77804        1.20272        0.31734
C         -1.42284        0.04205        0.50599
S          2.90195        0.09428       -0.78933
O          2.77806       -0.07086       -2.22449
O          3.53297        1.28538       -0.25574
C          3.75929       -1.34625       -0.13491
C          3.52644       -1.59912        1.33746
C          3.27386       -2.91459        1.76535
C          3.13739       -3.21667        3.12383
C          3.25652       -2.20763        4.08133
C          3.52019       -0.89930        3.67182
C          3.66847       -0.60136        2.31267
C          3.12774       -2.51725        5.47543
N          3.02659       -2.77493        6.60200
H         -1.48409       -1.91465       -0.34221
H         -0.50798       -1.76411        1.12218
H          0.19308       -0.86374       -1.71963
H          1.03200       -2.04031       -0.69222
H          1.16196        2.02710        0.45459
H          0.61398        1.71347       -1.21474
H         -1.28102        2.13651        0.55545
H         -2.43209        0.03143        0.90663
H          3.42417       -2.19870       -0.73565
H          4.82814       -1.19882       -0.32160
H          3.19827       -3.72598        1.04278
H          2.95060       -4.24538        3.42727
H          3.62524       -0.10107        4.40491
H          3.90321        0.42590        2.03816

--Link1--
%chk=JID_8592.chk
%mem=8GB
%nprocshared=4
# B3LYP/6-311++G(d,p) empiricaldispersion=gd3bj scf=xqc pop=npa geom=check

CID_107857507_JID_8592_Energie_neutraal

0 1

--Link1--
%chk=JID_8592.chk
%mem=8GB
%nprocshared=4
# B3LYP/6-311++G(d,p) empiricaldispersion=gd3bj scf=xqc pop=npa geom=check

CID_107857507_JID_8592_Energie_kation

1 2

--Link1--
%chk=JID_8592.chk
%mem=8GB
%nprocshared=4
# B3LYP/6-311++G(d,p) empiricaldispersion=gd3bj scf=xqc pop=npa geom=check

CID_107857507_JID_8592_Energie_anion

-1 2
