%chk=JID_2711.chk
%mem=8GB
%nprocshared=4
# opt freq B3LYP/6-31G(d) empiricaldispersion=gd3bj scf=xqc

CID_90902595_JID_2711_neutraal

0 1
C          1.04091       -0.07848       -0.04656
C          0.65219        0.38045       -1.45508
C         -0.05384        1.76908       -1.44528
C          0.91857        2.89682       -1.20062
C          0.82107        3.87047       -0.27887
N         -0.14860        4.21861        0.64847
C          0.12933        5.24540        1.65847
C         -1.55360        3.83009        0.56309
C          2.14019        2.81249       -2.10003
C          2.77345        1.41337       -2.08536
N          1.81542        0.33656       -2.38049
O         -0.65880        1.98691       -2.72698
H          1.52971       -1.05849       -0.07783
H          0.14694       -0.17737        0.57904
H          1.71664        0.62129        0.45471
H         -0.06379       -0.35358       -1.84768
H         -0.86114        1.73169       -0.71364
H          1.66634        4.55751       -0.20343
H         -0.10400        6.23814        1.26012
H         -0.46893        5.07870        2.56104
H          1.18189        5.22857        1.96270
H         -1.89546        3.79969       -0.47667
H         -1.70337        2.85127        1.02877
H         -2.20127        4.54542        1.08320
H          2.90285        3.54608       -1.81233
H          1.83799        3.06475       -3.12476
H          3.26345        1.22800       -1.12253
H          3.56908        1.37786       -2.83858
H          1.42986        0.51929       -3.31188
H         -0.93371        2.92017       -2.73586

--Link1--
%chk=JID_2711.chk
%mem=8GB
%nprocshared=4
# B3LYP/6-311++G(d,p) empiricaldispersion=gd3bj scf=xqc pop=npa geom=check

CID_90902595_JID_2711_Energie_neutraal

0 1

--Link1--
%chk=JID_2711.chk
%mem=8GB
%nprocshared=4
# B3LYP/6-311++G(d,p) empiricaldispersion=gd3bj scf=xqc pop=npa geom=check

CID_90902595_JID_2711_Energie_kation

1 2

--Link1--
%chk=JID_2711.chk
%mem=8GB
%nprocshared=4
# B3LYP/6-311++G(d,p) empiricaldispersion=gd3bj scf=xqc pop=npa geom=check

CID_90902595_JID_2711_Energie_anion

-1 2
