%chk=JID_9662.chk
%mem=8GB
%nprocshared=4
# opt freq B3LYP/6-31G(d) empiricaldispersion=gd3bj scf=xqc

CID_101028077_JID_9662_neutraal

0 1
C          0.94310       -0.03375        0.07499
C          1.22366       -1.48855        0.34336
O          2.34285       -1.87605        0.67079
C          0.11277       -2.44746        0.24109
C         -1.20345       -2.19351        0.08209
C         -1.90722       -3.52969        0.16337
C         -1.76267       -4.10373        1.55347
C         -0.38037       -4.38818        1.69783
C          0.26772       -3.94302        0.40458
O         -0.85396       -4.34811       -0.45888
C          1.52202       -4.65461       -0.05456
C          0.14126       -4.94003        2.85346
C         -0.74320       -5.22079        3.89934
C         -2.11529       -4.92810        3.78499
C         -2.61827       -4.35320        2.60695
N         -4.01418       -3.97259        2.55417
O         -4.27123       -2.82932        2.15373
O         -4.84615       -4.80486        2.93709
C         -3.17403       -3.70802       -0.64377
H          0.34282        0.38514        0.88662
H          0.42870        0.08388       -0.88257
H          1.88941        0.51258        0.01757
H         -1.69384       -1.23718       -0.00147
H          2.35852       -4.48951        0.63142
H          1.35520       -5.73575       -0.12630
H          1.82011       -4.31861       -1.05399
H          1.20235       -5.14942        2.95238
H         -0.36335       -5.65949        4.82062
H         -2.77445       -5.13756        4.62603
H         -3.96974       -3.03081       -0.32417
H         -2.98755       -3.51925       -1.70766
H         -3.54475       -4.73666       -0.57092

--Link1--
%chk=JID_9662.chk
%mem=8GB
%nprocshared=4
# B3LYP/6-311++G(d,p) empiricaldispersion=gd3bj scf=xqc pop=npa geom=check

CID_101028077_JID_9662_Energie_neutraal

0 1

--Link1--
%chk=JID_9662.chk
%mem=8GB
%nprocshared=4
# B3LYP/6-311++G(d,p) empiricaldispersion=gd3bj scf=xqc pop=npa geom=check

CID_101028077_JID_9662_Energie_kation

1 2

--Link1--
%chk=JID_9662.chk
%mem=8GB
%nprocshared=4
# B3LYP/6-311++G(d,p) empiricaldispersion=gd3bj scf=xqc pop=npa geom=check

CID_101028077_JID_9662_Energie_anion

-1 2
