%chk=JID_6117.chk
%mem=8GB
%nprocshared=4
# opt freq B3LYP/6-31G(d) empiricaldispersion=gd3bj scf=xqc

CID_13142857_JID_6117_neutraal

0 1
C          1.04538        0.05059       -0.07336
C          1.19061        0.07877       -1.58317
O          1.52365       -1.22882       -2.07115
C          2.84465       -1.53879       -2.09698
O          3.74574       -0.79477       -1.72983
C          3.09426       -2.90241       -2.69898
C          2.12040       -3.99785       -2.26203
C          0.74441       -4.02302       -2.93745
S          0.79490       -4.39579       -4.72821
C          0.90224       -2.76480       -5.44461
C          0.00791       -1.74286       -5.11764
C          0.13292       -0.47750       -5.69958
C          1.15143       -0.21776       -6.62261
C          2.01844       -1.25391       -6.98369
C          1.89244       -2.51768       -6.40035
C          1.26647        1.13025       -7.27012
H          0.30713       -0.69991        0.22783
H          0.73061        1.02742        0.30441
H          1.99045       -0.22199        0.40687
H          0.23437        0.35515       -2.03949
H          1.92694        0.82468       -1.90345
H          3.16353       -2.80175       -3.78286
H          4.09127       -3.20310       -2.35046
H          2.60256       -4.97080       -2.42540
H          1.96283       -3.91816       -1.17849
H          0.17315       -4.84232       -2.48506
H          0.16771       -3.12006       -2.73207
H         -0.80319       -1.91678       -4.41617
H         -0.57509        0.30291       -5.42980
H          2.79907       -1.08622       -7.72248
H          2.58089       -3.30627       -6.69583
H          2.30531        1.34586       -7.54147
H          0.65010        1.16569       -8.17358
H          0.93948        1.92039       -6.58603

--Link1--
%chk=JID_6117.chk
%mem=8GB
%nprocshared=4
# B3LYP/6-311++G(d,p) empiricaldispersion=gd3bj scf=xqc pop=npa geom=check

CID_13142857_JID_6117_Energie_neutraal

0 1

--Link1--
%chk=JID_6117.chk
%mem=8GB
%nprocshared=4
# B3LYP/6-311++G(d,p) empiricaldispersion=gd3bj scf=xqc pop=npa geom=check

CID_13142857_JID_6117_Energie_kation

1 2

--Link1--
%chk=JID_6117.chk
%mem=8GB
%nprocshared=4
# B3LYP/6-311++G(d,p) empiricaldispersion=gd3bj scf=xqc pop=npa geom=check

CID_13142857_JID_6117_Energie_anion

-1 2
