%chk=JID_9363.chk
%mem=8GB
%nprocshared=4
# opt freq B3LYP/6-31G(d) empiricaldispersion=gd3bj scf=xqc

CID_110703667_JID_9363_neutraal

0 1
C          0.67700        1.21600        0.00700
C          1.36296        0.06178        0.38374
C          0.73088       -0.90471        1.17568
C         -0.57816       -0.63528        1.56583
N         -1.26587        0.47897        1.21691
C         -0.62328        1.37873        0.44693
C          1.47622       -2.11981        1.65228
N          0.67315       -3.32347        1.70818
C          0.48770       -4.30429        0.78581
O         -0.18540       -5.28808        1.09582
C          1.11693       -4.19592       -0.58653
C          0.06809       -4.13134       -1.70162
C         -0.52956       -2.73379       -1.85817
C         -1.89533       -2.58254       -1.21452
O         -2.21890       -2.88680       -0.08094
N         -2.72037       -2.01503       -2.16800
N         -2.08307       -1.90440       -3.38123
C         -0.78471       -2.37115       -3.30990
O          0.00365       -2.44163       -4.23683
H          1.15141        1.97350       -0.60699
H          2.39200       -0.07346        0.05854
H         -1.14085       -1.32988        2.18557
H         -1.19785        2.26349        0.18936
H          2.35705       -2.30614        1.03117
H          1.83501       -1.93029        2.67034
H          0.16282       -3.50763        2.56403
H          1.81498       -3.36212       -0.67153
H          1.71721       -5.10616       -0.71413
H          0.56492       -4.43180       -2.63240
H         -0.72199       -4.87131       -1.52222
H          0.12841       -1.95587       -1.46056
H         -3.70932       -1.84713       -2.02356
H         -2.54184       -1.62785       -4.24124

--Link1--
%chk=JID_9363.chk
%mem=8GB
%nprocshared=4
# B3LYP/6-311++G(d,p) empiricaldispersion=gd3bj scf=xqc pop=npa geom=check

CID_110703667_JID_9363_Energie_neutraal

0 1

--Link1--
%chk=JID_9363.chk
%mem=8GB
%nprocshared=4
# B3LYP/6-311++G(d,p) empiricaldispersion=gd3bj scf=xqc pop=npa geom=check

CID_110703667_JID_9363_Energie_kation

1 2

--Link1--
%chk=JID_9363.chk
%mem=8GB
%nprocshared=4
# B3LYP/6-311++G(d,p) empiricaldispersion=gd3bj scf=xqc pop=npa geom=check

CID_110703667_JID_9363_Energie_anion

-1 2
