%chk=JID_10886.chk
%mem=8GB
%nprocshared=4
# opt freq B3LYP/6-31G(d) empiricaldispersion=gd3bj scf=xqc

CID_116822397_JID_10886_neutraal

0 1
C          2.20900        0.69700        0.00700
C          0.99474        1.40364        0.01198
C         -0.18887        0.68610       -0.20138
C         -0.11576       -0.68083       -0.42009
C          1.05930       -1.42097       -0.44068
C          2.23704       -0.69403       -0.20131
C          3.52427       -1.44203       -0.19610
N          3.72341       -2.35915       -1.09772
N          4.94050       -2.98071       -0.97942
C          5.90725       -2.74752       -0.02367
N          6.92564       -3.55578       -0.21334
N          6.64214       -4.33012       -1.31679
C          5.45655       -3.97244       -1.77901
C          4.73210       -4.54032       -2.94211
N          4.98844       -3.78644       -4.16964
C          5.64556       -1.75665        0.94228
C          4.48598       -1.08793        0.89538
O         -1.38802       -1.14109       -0.60177
C         -2.15432       -0.01959       -0.48061
N         -1.49666        1.09497       -0.24285
H          3.13087        1.25755        0.14818
H          0.96518        2.47636        0.17110
H          1.05452       -2.48952       -0.61759
H          5.05823       -5.57527       -3.09347
H          3.65349       -4.57303       -2.75256
H          4.47987       -4.22052       -4.93668
H          4.60778       -2.84710       -4.06550
H          6.38644       -1.56682        1.71034
H          4.23140       -0.33957        1.63467
H         -3.22173       -0.15228       -0.59007

--Link1--
%chk=JID_10886.chk
%mem=8GB
%nprocshared=4
# B3LYP/6-311++G(d,p) empiricaldispersion=gd3bj scf=xqc pop=npa geom=check

CID_116822397_JID_10886_Energie_neutraal

0 1

--Link1--
%chk=JID_10886.chk
%mem=8GB
%nprocshared=4
# B3LYP/6-311++G(d,p) empiricaldispersion=gd3bj scf=xqc pop=npa geom=check

CID_116822397_JID_10886_Energie_kation

1 2

--Link1--
%chk=JID_10886.chk
%mem=8GB
%nprocshared=4
# B3LYP/6-311++G(d,p) empiricaldispersion=gd3bj scf=xqc pop=npa geom=check

CID_116822397_JID_10886_Energie_anion

-1 2
