%chk=JID_6799.chk
%mem=8GB
%nprocshared=4
# opt freq B3LYP/6-31G(d) empiricaldispersion=gd3bj scf=xqc

CID_116809768_JID_6799_neutraal

0 1
C          1.06641       -0.07429        0.00842
C          0.41396        1.31931        0.06567
C          0.77259        2.11492       -1.20471
C         -0.02718        1.69575       -2.40904
O         -0.53593        2.50155       -3.18517
C         -1.10100        1.38305        0.35054
C         -1.68681        2.58102        0.83589
C         -3.05594        2.67346        1.11746
C         -3.89454        1.59945        0.85553
C         -3.36355        0.43064        0.32421
C         -1.98404        0.31187        0.08941
O         -1.50188       -0.82270       -0.51127
C         -1.92667       -2.03159        0.12040
O         -0.85100        3.64623        1.08752
C         -1.33999        4.89083        0.58269
O          1.14247        1.93956        1.15308
H          0.80787       -0.64163       -0.88909
H          0.80248       -0.66729        0.89216
H          2.16082        0.01129        0.02085
H          0.62330        3.19013       -1.05155
H          1.83561        1.99196       -1.44529
H         -0.06822        0.61503       -2.62218
H         -3.48135        3.57686        1.54373
H         -4.96101        1.67757        1.04883
H         -4.04327       -0.37874        0.07341
H         -1.21631       -2.81697       -0.15526
H         -1.92511       -1.94587        1.21304
H         -2.91352       -2.33069       -0.24540
H         -0.48692        5.57052        0.49559
H         -1.78550        4.78156       -0.41259
H         -2.05237        5.33683        1.28324
H          0.61714        2.70485        1.45496

--Link1--
%chk=JID_6799.chk
%mem=8GB
%nprocshared=4
# B3LYP/6-311++G(d,p) empiricaldispersion=gd3bj scf=xqc pop=npa geom=check

CID_116809768_JID_6799_Energie_neutraal

0 1

--Link1--
%chk=JID_6799.chk
%mem=8GB
%nprocshared=4
# B3LYP/6-311++G(d,p) empiricaldispersion=gd3bj scf=xqc pop=npa geom=check

CID_116809768_JID_6799_Energie_kation

1 2

--Link1--
%chk=JID_6799.chk
%mem=8GB
%nprocshared=4
# B3LYP/6-311++G(d,p) empiricaldispersion=gd3bj scf=xqc pop=npa geom=check

CID_116809768_JID_6799_Energie_anion

-1 2
