%chk=JID_9254.chk
%mem=8GB
%nprocshared=4
# opt freq B3LYP/6-31G(d) empiricaldispersion=gd3bj scf=xqc

CID_100410352_JID_9254_neutraal

0 1
C          1.03111        0.08946       -0.03208
O          0.93007       -1.22741       -0.56269
C          1.95375       -1.50113       -1.52581
C          1.60056       -0.96112       -2.89471
C          2.57063       -0.35807       -3.71944
C          2.20487        0.11876       -4.98447
C          0.89164       -0.01816       -5.44240
C         -0.06169       -0.65206       -4.64618
C          0.28377       -1.10487       -3.37199
C         -1.44435       -0.76678       -5.15445
O         -2.01007        0.22720       -5.60058
N         -2.08140       -1.98424       -5.15778
C         -1.46389       -3.29727       -5.11034
C         -2.49093       -4.41481       -4.95625
C         -1.75771       -5.66810       -5.42301
C         -0.62937       -5.18723       -6.33639
C         -0.76702       -3.67145       -6.41527
O          3.83587       -0.28108       -3.19914
C          4.82806        0.37823       -3.97630
H          0.21896        0.23091        0.68617
H          0.92974        0.84030       -0.82120
H          1.98302        0.21871        0.49191
H          2.91406       -1.13175       -1.15035
H          2.03823       -2.59082       -1.60789
H          2.91728        0.60540       -5.64258
H          0.61351        0.36730       -6.42096
H         -0.47406       -1.55694       -2.73422
H         -2.98815       -1.91664       -5.60616
H         -0.74914       -3.34658       -4.28391
H         -2.85580       -4.50607       -3.92832
H         -3.36286       -4.23747       -5.59868
H         -2.43593       -6.35297       -5.94216
H         -1.33848       -6.20856       -4.56669
H         -0.68200       -5.64675       -7.32840
H          0.33929       -5.45763       -5.90014
H         -1.38532       -3.39708       -7.27941
H          0.20170       -3.17632       -6.53371
H          5.76049        0.36910       -3.40367
H          5.00985       -0.15323       -4.91607
H          4.55880        1.42424       -4.15616

--Link1--
%chk=JID_9254.chk
%mem=8GB
%nprocshared=4
# B3LYP/6-311++G(d,p) empiricaldispersion=gd3bj scf=xqc pop=npa geom=check

CID_100410352_JID_9254_Energie_neutraal

0 1

--Link1--
%chk=JID_9254.chk
%mem=8GB
%nprocshared=4
# B3LYP/6-311++G(d,p) empiricaldispersion=gd3bj scf=xqc pop=npa geom=check

CID_100410352_JID_9254_Energie_kation

1 2

--Link1--
%chk=JID_9254.chk
%mem=8GB
%nprocshared=4
# B3LYP/6-311++G(d,p) empiricaldispersion=gd3bj scf=xqc pop=npa geom=check

CID_100410352_JID_9254_Energie_anion

-1 2
