%chk=JID_10753.chk
%mem=8GB
%nprocshared=4
# opt freq B3LYP/6-31G(d) empiricaldispersion=gd3bj scf=xqc

CID_6880351_JID_10753_neutraal

0 1
C          1.05246        0.06021       -0.06018
O          0.35184        1.22878       -0.46819
C          0.77488        2.42032        0.05198
C          0.06131        3.53718       -0.39137
C          0.39885        4.82249        0.04645
C          1.43660        4.99360        0.96634
C          2.14443        3.87393        1.42227
C          1.81870        2.59309        0.96105
C          1.86699        6.30650        1.48920
N          1.62412        7.43022        0.88744
N          2.15977        8.54180        1.47524
C          3.49734        8.81613        1.74701
O          3.75521        9.86744        2.33897
C          4.52172        7.87899        1.30587
C          4.60979        7.14282        0.13710
C          5.78334        6.33604        0.08289
C          6.56828        6.49741        1.20160
S          5.89450        7.61898        2.30218
O         -0.38007        5.87458       -0.35447
C         -0.06510        6.25474       -1.69394
H          0.59861       -0.79611       -0.56823
H          0.95449       -0.10195        1.01825
H          2.10464        0.10616       -0.35987
H         -0.77463        3.40029       -1.07281
H          2.96382        3.98590        2.12917
H          2.39630        1.75379        1.33502
H          2.44356        6.28036        2.43283
H          1.54883        9.35076        1.52537
H          3.86256        7.18430       -0.64749
H          6.04327        5.68164       -0.74034
H          7.51405        6.02172        1.42298
H         -0.55381        7.21300       -1.89371
H          1.01348        6.38734       -1.83610
H         -0.45464        5.52123       -2.40748

--Link1--
%chk=JID_10753.chk
%mem=8GB
%nprocshared=4
# B3LYP/6-311++G(d,p) empiricaldispersion=gd3bj scf=xqc pop=npa geom=check

CID_6880351_JID_10753_Energie_neutraal

0 1

--Link1--
%chk=JID_10753.chk
%mem=8GB
%nprocshared=4
# B3LYP/6-311++G(d,p) empiricaldispersion=gd3bj scf=xqc pop=npa geom=check

CID_6880351_JID_10753_Energie_kation

1 2

--Link1--
%chk=JID_10753.chk
%mem=8GB
%nprocshared=4
# B3LYP/6-311++G(d,p) empiricaldispersion=gd3bj scf=xqc pop=npa geom=check

CID_6880351_JID_10753_Energie_anion

-1 2
