%chk=JID_10802.chk
%mem=8GB
%nprocshared=4
# opt freq B3LYP/6-31G(d) empiricaldispersion=gd3bj scf=xqc

CID_106580047_JID_10802_neutraal

0 1
C          1.08412       -0.04608        0.02829
C          0.58470        1.32564       -0.19699
C         -0.66598        1.74202       -0.57836
N         -0.61794        3.11717       -0.61661
C          0.68738        3.47643       -0.31356
N          1.40008        2.40692       -0.03148
N          1.26588        4.69294       -0.28279
C          0.76672        6.00152       -0.60717
C          0.22521        6.70951        0.65106
C         -0.54518        7.97460        0.23725
C         -1.17946        8.70673        1.41311
S          0.06580        9.28032        2.59739
C          0.88117        7.69309        2.92102
C          1.36544        7.03549        1.63503
C         -1.75927        3.97198       -0.93212
C         -1.90675        4.20235       -2.44441
C         -2.72167        3.12253       -3.14850
C         -4.09208        2.96151       -2.50503
C         -3.97845        2.60674       -1.02906
C         -3.09219        3.58138       -0.25319
H          0.69036       -0.73293       -0.72745
H          0.77684       -0.40441        1.01550
H          2.17693       -0.07745       -0.02307
H         -1.55100        1.17348       -0.80890
H          2.25027        4.66051       -0.02755
H          1.59648        6.59098       -1.01847
H          0.02853        5.96601       -1.41191
H         -0.47496        6.03759        1.16534
H          0.11725        8.65526       -0.31384
H         -1.34577        7.69416       -0.45922
H         -1.73173        9.57939        1.05013
H         -1.89486        8.06055        1.93281
H          0.18525        7.03726        3.45492
H          1.73179        7.87653        3.58521
H          1.88747        6.11092        1.91023
H          2.11193        7.67603        1.14705
H         -1.51927        4.93047       -0.47375
H         -2.41057        5.16582       -2.59890
H         -0.92523        4.28614       -2.92641
H         -2.18358        2.16809       -3.12775
H         -2.84518        3.39205       -4.20378
H         -4.65618        2.18074       -3.02774
H         -4.66142        3.89270       -2.61503
H         -3.60262        1.58459       -0.93009
H         -4.97949        2.59849       -0.58099
H         -2.91462        3.19483        0.75783
H         -3.67423        4.50492       -0.12430

--Link1--
%chk=JID_10802.chk
%mem=8GB
%nprocshared=4
# B3LYP/6-311++G(d,p) empiricaldispersion=gd3bj scf=xqc pop=npa geom=check

CID_106580047_JID_10802_Energie_neutraal

0 1

--Link1--
%chk=JID_10802.chk
%mem=8GB
%nprocshared=4
# B3LYP/6-311++G(d,p) empiricaldispersion=gd3bj scf=xqc pop=npa geom=check

CID_106580047_JID_10802_Energie_kation

1 2

--Link1--
%chk=JID_10802.chk
%mem=8GB
%nprocshared=4
# B3LYP/6-311++G(d,p) empiricaldispersion=gd3bj scf=xqc pop=npa geom=check

CID_106580047_JID_10802_Energie_anion

-1 2
