%chk=JID_6720.chk
%mem=8GB
%nprocshared=4
# opt freq B3LYP/6-31G(d) empiricaldispersion=gd3bj scf=xqc

CID_105843808_JID_6720_neutraal

0 1
C          1.06143        0.04216       -0.06670
N          0.42742        0.73142       -1.18539
C         -1.04041        0.70836       -1.09463
C         -1.64720        1.54201       -2.22706
C         -3.01206        0.91846       -2.42716
N         -2.78041       -0.48227       -2.17899
C         -1.68464       -0.66826       -1.33105
O         -1.37236       -1.72094       -0.79692
C         -3.81004       -1.48896       -2.46301
C         -4.55348       -1.95131       -1.21704
C         -4.11331       -3.38459       -1.03232
O         -3.85958       -3.88059       -2.34636
C         -3.27790       -2.79480       -3.09634
C         -3.58514       -3.04058       -4.54841
C         -4.93059       -2.75096       -5.16823
C         -3.72468       -1.94242       -5.57371
H          0.89588       -1.03735       -0.10092
H          0.71837        0.43334        0.89652
H          2.14415        0.19639       -0.12021
H          0.74448        1.69976       -1.18828
H         -1.39070        1.08926       -0.12706
H         -1.70016        2.60887       -1.98928
H         -1.06125        1.43251       -3.14987
H         -3.73971        1.28730       -1.69637
H         -3.38914        1.07472       -3.44174
H         -4.52903       -0.99044       -3.12012
H         -5.63048       -1.94027       -1.42682
H         -4.38600       -1.34081       -0.32486
H         -3.19481       -3.46210       -0.44287
H         -4.88165       -3.99652       -0.55138
H         -2.19093       -2.87106       -2.97688
H         -3.09336       -3.95417       -4.87414
H         -5.31967       -3.47632       -5.87529
H         -5.69932       -2.27977       -4.56907
H         -3.66827       -0.90761       -5.26162
H         -3.30583       -2.12030       -6.55884

--Link1--
%chk=JID_6720.chk
%mem=8GB
%nprocshared=4
# B3LYP/6-311++G(d,p) empiricaldispersion=gd3bj scf=xqc pop=npa geom=check

CID_105843808_JID_6720_Energie_neutraal

0 1

--Link1--
%chk=JID_6720.chk
%mem=8GB
%nprocshared=4
# B3LYP/6-311++G(d,p) empiricaldispersion=gd3bj scf=xqc pop=npa geom=check

CID_105843808_JID_6720_Energie_kation

1 2

--Link1--
%chk=JID_6720.chk
%mem=8GB
%nprocshared=4
# B3LYP/6-311++G(d,p) empiricaldispersion=gd3bj scf=xqc pop=npa geom=check

CID_105843808_JID_6720_Energie_anion

-1 2
