%chk=JID_1905.chk
%mem=8GB
%nprocshared=4
# opt freq B3LYP/6-31G(d) empiricaldispersion=gd3bj scf=xqc

CID_91495976_JID_1905_neutraal

0 1
C          1.07707       -0.02652       -0.05794
C          1.41478       -0.61099       -1.41862
C          1.85374       -2.06141       -1.31055
C         -2.36917       -1.79435       -0.76486
N         -2.21422       -2.57854       -1.97743
C          0.59244        0.03668        3.82842
C          0.21653        1.32675        3.45451
C         -1.05184        1.55667        2.92147
C         -1.94466        0.49668        2.76308
C         -1.56887       -0.79332        3.13753
C         -0.30008       -1.02337        3.66953
H          0.27431       -0.59337        0.42168
H          0.74695        1.01173       -0.16124
H          1.94975       -0.04212        0.60270
H          0.53885       -0.54274       -2.07299
H          2.21344       -0.02085       -1.88142
H          1.06325       -2.67936       -0.87281
H          2.08826       -2.46160       -2.30183
H          2.74776       -2.15496       -0.68574
H         -3.41873       -1.77521       -0.45885
H         -2.03274       -0.76634       -0.92583
H         -1.78204       -2.23436        0.04575
H         -2.72999       -2.13401       -2.73567
H         -1.23471       -2.57047       -2.25970
H          1.58088       -0.14270        4.24304
H          0.91210        2.15255        3.57827
H         -1.34444        2.56215        2.63095
H         -2.93364        0.67646        2.35023
H         -2.26407       -1.61977        3.01546
H         -0.00695       -2.02864        3.96053

--Link1--
%chk=JID_1905.chk
%mem=8GB
%nprocshared=4
# B3LYP/6-311++G(d,p) empiricaldispersion=gd3bj scf=xqc pop=npa geom=check

CID_91495976_JID_1905_Energie_neutraal

0 1

--Link1--
%chk=JID_1905.chk
%mem=8GB
%nprocshared=4
# B3LYP/6-311++G(d,p) empiricaldispersion=gd3bj scf=xqc pop=npa geom=check

CID_91495976_JID_1905_Energie_kation

1 2

--Link1--
%chk=JID_1905.chk
%mem=8GB
%nprocshared=4
# B3LYP/6-311++G(d,p) empiricaldispersion=gd3bj scf=xqc pop=npa geom=check

CID_91495976_JID_1905_Energie_anion

-1 2
