%chk=JID_5599.chk
%mem=8GB
%nprocshared=4
# opt freq B3LYP/6-31G(d) empiricaldispersion=gd3bj scf=xqc

CID_82689040_JID_5599_neutraal

0 1
C          0.96016       -0.04316       -0.08093
C          1.41803       -1.32355        0.57808
C          1.49089       -1.16219        2.08616
N          0.16406       -1.00179        2.68938
C         -0.37498       -2.19092        3.34274
C          0.30910       -2.19509        4.70009
C          0.89590       -2.19867        5.86443
C         -0.25017        0.29454        3.00057
O          0.35171        1.29387        2.59980
C         -1.50291        0.48905        3.83904
C         -2.74798        0.57629        2.96179
C         -4.06906        0.52114        3.76071
C         -4.09905        1.54276        4.90477
C         -5.29734        0.75163        2.85760
N         -5.41471       -0.24863        1.80133
H         -0.07995        0.19296        0.16238
H          1.01691       -0.14703       -1.16992
H          1.59268        0.80465        0.20062
H          0.74103       -2.14208        0.30823
H          2.41238       -1.58389        0.19755
H          1.97748       -2.04656        2.51497
H          2.12831       -0.30888        2.34719
H         -1.45978       -2.12456        3.45187
H         -0.12829       -3.08513        2.76259
H          1.37844       -2.19564        6.81471
H         -1.60472       -0.28941        4.59745
H         -1.36551        1.42413        4.39662
H         -2.70604        1.50512        2.37792
H         -2.72755       -0.24310        2.23331
H         -4.15335       -0.47798        4.20975
H         -3.92559        2.55854        4.53416
H         -5.06831        1.52866        5.41514
H         -3.33974        1.31858        5.66059
H         -6.20804        0.70986        3.46630
H         -5.25668        1.75023        2.40671
H         -6.27938       -0.08466        1.28556
H         -4.66535       -0.11691        1.12262

--Link1--
%chk=JID_5599.chk
%mem=8GB
%nprocshared=4
# B3LYP/6-311++G(d,p) empiricaldispersion=gd3bj scf=xqc pop=npa geom=check

CID_82689040_JID_5599_Energie_neutraal

0 1

--Link1--
%chk=JID_5599.chk
%mem=8GB
%nprocshared=4
# B3LYP/6-311++G(d,p) empiricaldispersion=gd3bj scf=xqc pop=npa geom=check

CID_82689040_JID_5599_Energie_kation

1 2

--Link1--
%chk=JID_5599.chk
%mem=8GB
%nprocshared=4
# B3LYP/6-311++G(d,p) empiricaldispersion=gd3bj scf=xqc pop=npa geom=check

CID_82689040_JID_5599_Energie_anion

-1 2
