%chk=JID_7426.chk
%mem=8GB
%nprocshared=4
# opt freq B3LYP/6-31G(d) empiricaldispersion=gd3bj scf=xqc

CID_79037812_JID_7426_neutraal

0 1
C          0.95048        0.08564       -0.01465
C          0.25413        1.33916       -0.53929
C          1.28635        2.43156       -0.89656
N          0.76173        3.66394       -1.48987
C         -0.67013        3.67382       -1.77230
C         -1.11855        2.51231       -2.68394
S         -0.80883        0.85805       -1.95379
C         -0.45770        2.56999       -4.06191
C          1.32514        4.91372       -0.97800
C          0.70178        5.55514        0.27729
S          1.44919        5.00698        1.85581
C          0.30203        3.77317        2.43759
C         -1.08190        3.96853        2.45571
C         -1.93159        2.97370        2.94802
C         -1.40258        1.78423        3.44489
C         -0.02352        1.59273        3.46132
C          0.82427        2.58631        2.96635
H          1.60279       -0.36442       -0.77168
H          0.22483       -0.66939        0.30811
H          1.57438        0.32684        0.85266
H         -0.41428        1.70993        0.24372
H          1.86797        2.65315        0.00494
H          2.01267        2.01664       -1.60809
H         -0.93090        4.61068       -2.28203
H         -1.25486        3.66037       -0.84399
H         -2.20265        2.59099       -2.82542
H         -0.86518        1.80112       -4.72824
H         -0.64678        3.54013       -4.53477
H          0.62801        2.43263       -4.01076
H          2.41351        4.82077       -0.86564
H          1.20565        5.64656       -1.78837
H          0.91551        6.62988        0.22973
H         -0.38740        5.47959        0.27850
H         -1.51971        4.90009        2.10968
H         -3.00698        3.13292        2.95455
H         -2.06407        1.01286        3.83122
H          0.39439        0.67284        3.86228
H          1.89965        2.42365        2.99482

--Link1--
%chk=JID_7426.chk
%mem=8GB
%nprocshared=4
# B3LYP/6-311++G(d,p) empiricaldispersion=gd3bj scf=xqc pop=npa geom=check

CID_79037812_JID_7426_Energie_neutraal

0 1

--Link1--
%chk=JID_7426.chk
%mem=8GB
%nprocshared=4
# B3LYP/6-311++G(d,p) empiricaldispersion=gd3bj scf=xqc pop=npa geom=check

CID_79037812_JID_7426_Energie_kation

1 2

--Link1--
%chk=JID_7426.chk
%mem=8GB
%nprocshared=4
# B3LYP/6-311++G(d,p) empiricaldispersion=gd3bj scf=xqc pop=npa geom=check

CID_79037812_JID_7426_Energie_anion

-1 2
