%chk=JID_2089.chk
%mem=8GB
%nprocshared=4
# opt freq B3LYP/6-31G(d) empiricaldispersion=gd3bj scf=xqc

CID_18362287_JID_2089_neutraal

0 1
C          0.96163        0.00824       -0.09198
C          0.41539        1.08769        0.80083
C         -0.42666        0.72888        1.86899
C         -0.95844        1.68333        2.74357
C         -0.53256        3.01483        2.62272
C          0.30034        3.37470        1.54646
C          0.72955        2.43865        0.59762
N          1.65321        2.84054       -0.37942
C         -0.95486        4.08752        3.60582
C         -2.32973        4.67026        3.28110
O         -3.36198        3.70287        3.46327
N         -1.71084        1.25039        3.84437
H          0.61798        0.15706       -1.12057
H          0.62934       -0.98578        0.22538
H          2.05605        0.01176       -0.06777
H         -0.66431       -0.32095        2.02711
H          0.63235        4.40672        1.45524
H          1.57919        3.82014       -0.63366
H          1.67853        2.23819       -1.19499
H         -0.94320        3.67674        4.62245
H         -0.21324        4.89608        3.60166
H         -2.54304        5.50279        3.95888
H         -2.38167        5.04928        2.25459
H         -3.30726        3.10371        2.69493
H         -2.31855        1.96477        4.24591
H         -2.19996        0.37338        3.70131

--Link1--
%chk=JID_2089.chk
%mem=8GB
%nprocshared=4
# B3LYP/6-311++G(d,p) empiricaldispersion=gd3bj scf=xqc pop=npa geom=check

CID_18362287_JID_2089_Energie_neutraal

0 1

--Link1--
%chk=JID_2089.chk
%mem=8GB
%nprocshared=4
# B3LYP/6-311++G(d,p) empiricaldispersion=gd3bj scf=xqc pop=npa geom=check

CID_18362287_JID_2089_Energie_kation

1 2

--Link1--
%chk=JID_2089.chk
%mem=8GB
%nprocshared=4
# B3LYP/6-311++G(d,p) empiricaldispersion=gd3bj scf=xqc pop=npa geom=check

CID_18362287_JID_2089_Energie_anion

-1 2
