%chk=JID_3114.chk
%mem=8GB
%nprocshared=4
# opt freq B3LYP/6-31G(d) empiricaldispersion=gd3bj scf=xqc

CID_131299803_JID_3114_neutraal

0 1
C          0.94127        0.05408       -0.06022
C          0.37669        1.41406        0.31803
C          0.94326        2.59737       -0.48005
C          0.40333        2.74933       -1.92727
C          0.76879        4.16123       -2.46831
C          0.42501        4.42954       -3.94330
C          1.26756        3.69649       -5.01676
C          0.90810        2.19520       -5.17961
C          0.21140        1.50230       -4.01101
N          0.90000        1.64100       -2.74085
C          2.77794        3.84454       -4.73477
C          0.99951        4.39077       -6.37526
O          0.06425        5.15226       -1.69870
H          0.56363       -0.28792       -1.02694
H          0.64172       -0.69249        0.68296
H          2.03490        0.07377       -0.09522
H         -0.71651        1.39528        0.24105
H          0.61037        1.58568        1.37645
H          0.68695        3.50241        0.08562
H          2.04020        2.54904       -0.48773
H         -0.69091        2.68372       -1.85122
H          1.83193        4.35740       -2.29502
H          0.53422        5.51314       -4.10026
H         -0.64445        4.24139       -4.11088
H          1.81362        1.62803       -5.43576
H          0.24435        2.06831       -6.04608
H          0.16844        0.43116       -4.24371
H         -0.83644        1.82020       -3.94454
H          1.90955        1.69069       -2.86263
H          3.37468        3.47219       -5.57588
H          3.04873        4.89535       -4.58110
H          3.09127        3.28390       -3.84954
H         -0.06623        4.36162       -6.62971
H          1.30682        5.44267       -6.35309
H          1.55121        3.90222       -7.18681
H         -0.88843        5.01160       -1.83679

--Link1--
%chk=JID_3114.chk
%mem=8GB
%nprocshared=4
# B3LYP/6-311++G(d,p) empiricaldispersion=gd3bj scf=xqc pop=npa geom=check

CID_131299803_JID_3114_Energie_neutraal

0 1

--Link1--
%chk=JID_3114.chk
%mem=8GB
%nprocshared=4
# B3LYP/6-311++G(d,p) empiricaldispersion=gd3bj scf=xqc pop=npa geom=check

CID_131299803_JID_3114_Energie_kation

1 2

--Link1--
%chk=JID_3114.chk
%mem=8GB
%nprocshared=4
# B3LYP/6-311++G(d,p) empiricaldispersion=gd3bj scf=xqc pop=npa geom=check

CID_131299803_JID_3114_Energie_anion

-1 2
