%chk=JID_3075.chk
%mem=8GB
%nprocshared=4
# opt freq B3LYP/6-31G(d) empiricaldispersion=gd3bj scf=xqc

CID_103537646_JID_3075_neutraal

0 1
C          1.05845       -0.08025        0.01202
C          0.94750       -0.19592       -1.49895
C          1.26674       -1.59759       -2.03029
C          0.39894       -2.77742       -1.46877
C         -1.09652       -2.49172       -1.70286
N          0.85298       -4.03683       -2.14153
C         -0.03659       -5.20279       -1.98157
C          0.31324       -5.79099       -0.62918
C          1.83094       -5.67144       -0.60965
C          2.14838       -4.51637       -1.57919
O          2.40931       -5.59544        0.68807
C          2.10039       -4.45908        1.47742
O          1.14008       -1.56800       -3.45890
H          0.29407       -0.67711        0.51790
H          0.92287        0.96144        0.32009
H          2.04232       -0.41060        0.35990
H         -0.04239        0.13437       -1.83344
H          1.64653        0.51449       -1.95984
H          2.32604       -1.78376       -1.82287
H          0.54936       -2.85448       -0.38645
H         -1.34955       -2.50297       -2.76841
H         -1.72895       -3.22127       -1.18716
H         -1.38977       -1.51910       -1.29793
H          0.20850       -5.92761       -2.76999
H         -1.10315       -5.00025       -2.09723
H         -0.17198       -5.23281        0.17579
H         -0.00694       -6.83401       -0.53820
H          2.23960       -6.58897       -1.05336
H          2.76617       -3.73622       -1.12944
H          2.73451       -4.91438       -2.41755
H          2.44503       -3.53602        1.00632
H          1.03287       -4.39812        1.69853
H          2.62907       -4.56091        2.42982
H          1.12950       -2.51250       -3.71880

--Link1--
%chk=JID_3075.chk
%mem=8GB
%nprocshared=4
# B3LYP/6-311++G(d,p) empiricaldispersion=gd3bj scf=xqc pop=npa geom=check

CID_103537646_JID_3075_Energie_neutraal

0 1

--Link1--
%chk=JID_3075.chk
%mem=8GB
%nprocshared=4
# B3LYP/6-311++G(d,p) empiricaldispersion=gd3bj scf=xqc pop=npa geom=check

CID_103537646_JID_3075_Energie_kation

1 2

--Link1--
%chk=JID_3075.chk
%mem=8GB
%nprocshared=4
# B3LYP/6-311++G(d,p) empiricaldispersion=gd3bj scf=xqc pop=npa geom=check

CID_103537646_JID_3075_Energie_anion

-1 2
