%chk=JID_4749.chk
%mem=8GB
%nprocshared=4
# opt freq B3LYP/6-31G(d) empiricaldispersion=gd3bj scf=xqc

CID_127002621_JID_4749_neutraal

0 1
C          1.07403       -0.05081       -0.04402
C          0.52219       -1.39435        0.41014
C          1.08788       -1.88378        1.75668
C          0.52080       -1.07716        2.93128
C          1.03398       -1.50643        4.33921
C          0.96935       -0.02237        4.74160
C          1.14189        0.31456        3.24815
N          0.69508       -3.27715        1.93010
C          1.56459       -4.28556        1.70651
N          2.85497       -4.14984        1.50845
C          3.43833       -5.39080        1.33960
C          2.58610       -6.47446        1.39222
S          0.99485       -5.91287        1.67444
N          2.87392       -7.78623        1.25635
H          0.71490        0.76610        0.58580
H          0.74673        0.16023       -1.06744
H          2.16834       -0.04854       -0.03267
H         -0.57281       -1.33750        0.45254
H          0.76279       -2.13031       -0.36836
H          2.18066       -1.78330        1.74880
H         -0.57907       -1.03764        2.90283
H          0.37724       -2.17692        4.89979
H          2.05123       -1.91629        4.34866
H          1.76521        0.32674        5.40390
H          0.00039        0.28109        5.15412
H          2.18859        0.42641        2.94219
H          0.57383        1.18233        2.90372
H         -0.29676       -3.48135        1.92785
H          4.50687       -5.44812        1.17903
H          2.11713       -8.45239        1.13359
H          3.76688       -8.09080        0.88180

--Link1--
%chk=JID_4749.chk
%mem=8GB
%nprocshared=4
# B3LYP/6-311++G(d,p) empiricaldispersion=gd3bj scf=xqc pop=npa geom=check

CID_127002621_JID_4749_Energie_neutraal

0 1

--Link1--
%chk=JID_4749.chk
%mem=8GB
%nprocshared=4
# B3LYP/6-311++G(d,p) empiricaldispersion=gd3bj scf=xqc pop=npa geom=check

CID_127002621_JID_4749_Energie_kation

1 2

--Link1--
%chk=JID_4749.chk
%mem=8GB
%nprocshared=4
# B3LYP/6-311++G(d,p) empiricaldispersion=gd3bj scf=xqc pop=npa geom=check

CID_127002621_JID_4749_Energie_anion

-1 2
