%chk=JID_6206.chk
%mem=8GB
%nprocshared=4
# opt freq B3LYP/6-31G(d) empiricaldispersion=gd3bj scf=xqc

CID_59517997_JID_6206_neutraal

0 1
C          1.34400       -0.22500        0.03600
C          0.71242        0.83704        0.68351
C         -0.65828        1.03884        0.51729
C         -1.39975        0.16985       -0.28471
C         -0.76392       -0.88119       -0.95111
C          0.60737       -1.08174       -0.78259
O         -2.73849        0.45852       -0.43127
C         -3.61799       -0.59913       -0.45789
C         -4.54124       -0.63347       -1.49783
C         -5.45948       -1.67660       -1.56167
C         -5.47207       -2.66278       -0.56817
C         -4.59752       -2.60490        0.52546
C         -3.64926       -1.57131        0.54850
N         -4.52801       -3.59538        1.51159
C         -5.68935       -4.41638        1.77499
S         -5.32201       -5.41551        3.23340
H          2.41215       -0.38119        0.16391
H          1.28783        1.51007        1.31363
H         -1.14930        1.87086        1.01437
H         -1.32277       -1.54347       -1.60627
H          1.10167       -1.90291       -1.29519
H         -4.52984        0.13599       -2.26427
H         -6.16324       -1.73048       -2.38821
H         -6.18608       -3.47406       -0.67310
H         -2.92867       -1.51704        1.36033
H         -4.13080       -3.24061        2.37826
H         -6.57405       -3.80649        1.98444
H         -5.89842       -5.09297        0.94099
H         -4.24123       -6.00673        2.70580

--Link1--
%chk=JID_6206.chk
%mem=8GB
%nprocshared=4
# B3LYP/6-311++G(d,p) empiricaldispersion=gd3bj scf=xqc pop=npa geom=check

CID_59517997_JID_6206_Energie_neutraal

0 1

--Link1--
%chk=JID_6206.chk
%mem=8GB
%nprocshared=4
# B3LYP/6-311++G(d,p) empiricaldispersion=gd3bj scf=xqc pop=npa geom=check

CID_59517997_JID_6206_Energie_kation

1 2

--Link1--
%chk=JID_6206.chk
%mem=8GB
%nprocshared=4
# B3LYP/6-311++G(d,p) empiricaldispersion=gd3bj scf=xqc pop=npa geom=check

CID_59517997_JID_6206_Energie_anion

-1 2
