%chk=JID_9321.chk
%mem=8GB
%nprocshared=4
# opt freq B3LYP/6-31G(d) empiricaldispersion=gd3bj scf=xqc

CID_83115808_JID_9321_neutraal

0 1
C          0.95581        0.05094       -0.07384
C         -0.52785       -0.02015       -0.40771
C         -0.83604       -0.95847       -1.57597
C         -0.66875       -2.40496       -1.24755
N          0.44457       -3.05420       -1.61999
N          0.23185       -4.32706       -1.21614
C         -0.94958       -4.49762       -0.53318
C         -1.57301       -3.27227       -0.58694
N         -2.79049       -2.99504       -0.07254
N         -1.37086       -5.67630        0.01951
C         -0.61489       -6.20611        1.16887
C         -0.81769       -5.36290        2.43863
N         -2.21290       -4.96522        2.62900
C         -2.78573       -4.83650        3.85835
O         -3.41948       -3.81332        4.10764
N         -2.62426       -5.86903        4.75653
C         -2.55556       -7.26358        4.34894
C         -3.05153       -5.63734        6.12453
C          1.19593       -5.33662       -1.57898
H          1.33215       -0.91328        0.28105
H          1.12791        0.78776        0.71728
H          1.54187        0.35046       -0.94850
H         -1.08779       -0.32050        0.48579
H         -0.86784        0.98813       -0.67317
H         -1.87375       -0.79282       -1.89242
H         -0.21257       -0.69337       -2.43937
H         -3.46889       -3.74462        0.02356
H         -3.24170       -2.11381       -0.30297
H         -2.35336       -5.65344        0.29982
H         -0.98695       -7.22030        1.35354
H          0.45251       -6.30206        0.94462
H         -0.43108       -5.89051        3.31577
H         -0.24556       -4.43042        2.36068
H         -2.43832       -4.14292        2.07402
H         -1.72597       -7.74328        4.87560
H         -3.49359       -7.75648        4.62483
H         -2.42739       -7.38232        3.27249
H         -2.89824       -4.59181        6.40852
H         -4.11553       -5.87780        6.21123
H         -2.47044       -6.27465        6.79745
H          0.70689       -6.31196       -1.63177
H          1.61462       -5.09260       -2.55914
H          1.98403       -5.34165       -0.82235

--Link1--
%chk=JID_9321.chk
%mem=8GB
%nprocshared=4
# B3LYP/6-311++G(d,p) empiricaldispersion=gd3bj scf=xqc pop=npa geom=check

CID_83115808_JID_9321_Energie_neutraal

0 1

--Link1--
%chk=JID_9321.chk
%mem=8GB
%nprocshared=4
# B3LYP/6-311++G(d,p) empiricaldispersion=gd3bj scf=xqc pop=npa geom=check

CID_83115808_JID_9321_Energie_kation

1 2

--Link1--
%chk=JID_9321.chk
%mem=8GB
%nprocshared=4
# B3LYP/6-311++G(d,p) empiricaldispersion=gd3bj scf=xqc pop=npa geom=check

CID_83115808_JID_9321_Energie_anion

-1 2
