%chk=JID_10391.chk
%mem=8GB
%nprocshared=4
# opt freq B3LYP/6-31G(d) empiricaldispersion=gd3bj scf=xqc

CID_153158988_JID_10391_neutraal

0 1
C          0.97936       -0.05581       -0.08037
C         -0.02394       -0.56212        0.95113
C         -0.18197        0.31405        2.22564
C         -0.50610        1.77444        1.84970
C         -1.37185       -0.22287        3.05985
O         -1.16584       -1.56888        3.47628
C          1.11565        0.26293        3.06775
O          0.96193        1.08151        4.22625
C          2.01512        0.97722        5.17641
C          3.47051        1.30147        4.69075
C          3.74201        2.67071        4.06288
O          2.99530        2.89741        2.87782
O          4.36687        1.14330        5.81245
N          1.68625        1.72909        6.42376
C          0.74890        0.91890        7.22932
C          0.57631        1.43473        8.62948
C         -0.59955        1.77626        9.17387
C          1.09205        3.04693        6.10738
C          1.62681        4.11720        7.02198
C          2.15508        5.27853        6.61074
H          0.68604        0.91638       -0.48631
H          1.02869       -0.75700       -0.92038
H          1.98662        0.02690        0.33598
H         -0.99743       -0.65169        0.45149
H          0.26672       -1.58051        1.23915
H         -1.35673        1.82262        1.16059
H         -0.76624        2.36870        2.73313
H          0.34646        2.26658        1.37028
H         -1.55762        0.38764        3.95118
H         -2.29172       -0.20621        2.46435
H         -0.64667       -1.53478        4.29791
H          1.34019       -0.76701        3.36957
H          1.95991        0.63032        2.47999
H          2.07872       -0.08363        5.45951
H          3.75381        0.54103        3.95347
H          3.55964        3.48036        4.77201
H          4.80596        2.73649        3.80470
H          3.24853        3.77737        2.54920
H          3.88445        1.54418        6.56702
H         -0.21894        0.80818        6.72216
H          1.15250       -0.09539        7.34937
H          1.48017        1.51696        9.22903
H         -0.65313        2.13960       10.19555
H         -1.52828        1.70938        8.61578
H          1.29843        3.35046        5.07476
H         -0.00331        3.02729        6.18054
H          1.55153        3.93928        8.09092
H          2.50914        6.01086        7.32971
H          2.23926        5.52745        5.55785

--Link1--
%chk=JID_10391.chk
%mem=8GB
%nprocshared=4
# B3LYP/6-311++G(d,p) empiricaldispersion=gd3bj scf=xqc pop=npa geom=check

CID_153158988_JID_10391_Energie_neutraal

0 1

--Link1--
%chk=JID_10391.chk
%mem=8GB
%nprocshared=4
# B3LYP/6-311++G(d,p) empiricaldispersion=gd3bj scf=xqc pop=npa geom=check

CID_153158988_JID_10391_Energie_kation

1 2

--Link1--
%chk=JID_10391.chk
%mem=8GB
%nprocshared=4
# B3LYP/6-311++G(d,p) empiricaldispersion=gd3bj scf=xqc pop=npa geom=check

CID_153158988_JID_10391_Energie_anion

-1 2
