%chk=JID_6409.chk
%mem=8GB
%nprocshared=4
# opt freq B3LYP/6-31G(d) empiricaldispersion=gd3bj scf=xqc

CID_79068981_JID_6409_neutraal

0 1
C          0.94105       -0.04312       -0.06830
C          1.18549        1.32506       -0.70476
C          1.38748        1.41176       -2.27765
C          0.38531        0.41301       -2.91774
C          0.87317        2.89810       -2.66562
C          1.50891        4.10279       -1.92448
C          2.97061        4.40452       -2.23333
C          3.42476        5.78887       -1.68031
C          4.79961        5.15824       -1.40453
C          4.07862        3.80026       -1.32131
N          0.73797        3.19737       -4.10568
N          2.79511        1.13266       -2.69110
C          3.63412        0.20435       -1.92741
C          3.55647       -1.26488       -2.32574
C          3.24592        1.27098       -4.08018
C          2.57936        0.43520       -5.16529
H         -0.01726       -0.46468       -0.38667
H          0.89174        0.06754        1.02070
H          1.71939       -0.77355       -0.28292
H          0.30923        1.92590       -0.42449
H          2.02907        1.80739       -0.19658
H         -0.61051        0.52609       -2.47083
H          0.24279        0.56952       -3.98728
H          0.68538       -0.62771       -2.77337
H         -0.17455        2.91043       -2.32709
H          0.91809        4.99167       -2.19102
H          1.36851        3.99744       -0.84241
H          3.21234        4.33010       -3.30068
H          3.41864        6.61134       -2.40060
H          2.90482        6.11230       -0.77033
H          5.30104        5.48786       -0.49135
H          5.49810        5.23606       -2.24545
H          3.74899        3.54336       -0.30838
H          4.65010        2.96768       -1.73439
H          0.18077        4.04408       -4.21732
H          1.64802        3.43061       -4.49028
H          4.68246        0.51354       -2.04371
H          3.48536        0.30512       -0.85050
H          3.93875       -1.42831       -3.33745
H          4.17758       -1.86152       -1.64875
H          2.54058       -1.66004       -2.27003
H          3.23345        2.31958       -4.37979
H          4.31906        1.03663       -4.12683
H          1.64224        0.88197       -5.50395
H          3.23354        0.38549       -6.04314
H          2.38871       -0.59207       -4.84499

--Link1--
%chk=JID_6409.chk
%mem=8GB
%nprocshared=4
# B3LYP/6-311++G(d,p) empiricaldispersion=gd3bj scf=xqc pop=npa geom=check

CID_79068981_JID_6409_Energie_neutraal

0 1

--Link1--
%chk=JID_6409.chk
%mem=8GB
%nprocshared=4
# B3LYP/6-311++G(d,p) empiricaldispersion=gd3bj scf=xqc pop=npa geom=check

CID_79068981_JID_6409_Energie_kation

1 2

--Link1--
%chk=JID_6409.chk
%mem=8GB
%nprocshared=4
# B3LYP/6-311++G(d,p) empiricaldispersion=gd3bj scf=xqc pop=npa geom=check

CID_79068981_JID_6409_Energie_anion

-1 2
