%chk=JID_8355.chk
%mem=8GB
%nprocshared=4
# opt freq B3LYP/6-31G(d) empiricaldispersion=gd3bj scf=xqc

CID_113362048_JID_8355_neutraal

0 1
C          1.08171        0.05762       -0.00172
C          0.24444       -1.09671        0.53489
C          0.18486       -1.10819        2.06110
O         -0.47976        0.07764        2.51379
C          0.28259        0.83616        3.35158
C          0.85221        0.36719        4.52554
N          1.61202        1.12855        5.34446
C          1.79552        2.42057        4.97669
C          1.23858        3.00166        3.83925
C          0.45429        2.17583        3.02556
C          1.45209        4.44567        3.47402
C          0.20904        5.33925        3.64104
C         -0.24378        5.56572        5.10246
C         -1.21589        4.51401        5.60994
C         -2.55501        4.98308        5.07466
O         -2.45334        6.39881        4.86915
C         -1.12353        6.80634        5.21306
O          2.54234        4.99984        4.20786
H          2.08422        0.05615        0.43755
H          0.61095        1.02259        0.20519
H          1.18748       -0.03052       -1.08782
H         -0.76861       -1.01170        0.12487
H          0.66761       -2.04431        0.18362
H         -0.40724       -1.96636        2.39767
H          1.19966       -1.22422        2.46318
H          0.71035       -0.65699        4.85378
H          2.42007        2.99763        5.65467
H         -0.01079        2.56691        2.12411
H          1.75627        4.46814        2.41911
H          0.47452        6.31850        3.21999
H         -0.61740        4.95457        3.03154
H          0.63050        5.66437        5.75377
H         -1.23745        4.54528        6.70680
H         -0.99831        3.48483        5.32369
H         -2.78756        4.51951        4.11058
H         -3.37499        4.77124        5.76700
H         -1.14715        7.17453        6.24541
H         -0.81311        7.63190        4.56616
H          2.75609        5.85629        3.79987

--Link1--
%chk=JID_8355.chk
%mem=8GB
%nprocshared=4
# B3LYP/6-311++G(d,p) empiricaldispersion=gd3bj scf=xqc pop=npa geom=check

CID_113362048_JID_8355_Energie_neutraal

0 1

--Link1--
%chk=JID_8355.chk
%mem=8GB
%nprocshared=4
# B3LYP/6-311++G(d,p) empiricaldispersion=gd3bj scf=xqc pop=npa geom=check

CID_113362048_JID_8355_Energie_kation

1 2

--Link1--
%chk=JID_8355.chk
%mem=8GB
%nprocshared=4
# B3LYP/6-311++G(d,p) empiricaldispersion=gd3bj scf=xqc pop=npa geom=check

CID_113362048_JID_8355_Energie_anion

-1 2
