%chk=JID_10815.chk
%mem=8GB
%nprocshared=4
# opt freq B3LYP/6-31G(d) empiricaldispersion=gd3bj scf=xqc

CID_115963574_JID_10815_neutraal

0 1
C          0.91295        0.00216       -0.04918
C         -0.30644       -0.86420        0.22582
C         -0.02739       -1.94399        1.21407
N         -0.04079       -1.68626        2.52268
N          0.23292       -2.87160        3.10943
C          0.43978       -3.88972        2.20605
C          0.24531       -3.30236        0.96612
C          0.69580       -5.32990        2.53446
N          2.08116       -5.81809        2.35522
C          2.53193       -5.63746        0.96545
C          3.86654       -6.31542        0.69313
C          4.91532       -5.74057        1.63210
C          4.47490       -5.93351        3.07791
C          3.06670       -5.34777        3.36152
C          2.67528       -5.76685        4.81760
N          3.55741       -5.23419        5.86037
O          6.23814       -6.22680        1.38417
C          6.42676       -7.63194        1.43893
C          0.18633       -2.91115        4.55917
C          1.37643       -2.22095        5.20257
H          1.26042        0.49885        0.86312
H          0.67169        0.77481       -0.78594
H          1.74216       -0.59639       -0.44162
H         -1.12610       -0.23335        0.59067
H         -0.65009       -1.30922       -0.71576
H          0.29014       -3.79649        0.00576
H          0.31346       -5.59003        3.52397
H          0.05686       -5.92844        1.86834
H          2.63593       -4.57437        0.71889
H          1.79432       -6.06705        0.27645
H          4.16942       -6.16064       -0.34907
H          3.76349       -7.39902        0.82686
H          4.98108       -4.66027        1.44819
H          4.47819       -7.00129        3.32993
H          5.22686       -5.46975        3.72759
H          3.13630       -4.25391        3.30760
H          1.67401       -5.41999        5.06808
H          2.65480       -6.86089        4.89579
H          3.22760       -5.55388        6.77104
H          4.49238       -5.62766        5.75747
H          6.14823       -8.03939        2.41328
H          5.87549       -8.13487        0.64044
H          7.49091       -7.83309        1.28439
H         -0.74392       -2.41605        4.86285
H          0.10867       -3.94723        4.88750
H          1.39204       -1.15319        4.95920
H          1.32804       -2.31783        6.29149
H          2.32218       -2.64909        4.86021

--Link1--
%chk=JID_10815.chk
%mem=8GB
%nprocshared=4
# B3LYP/6-311++G(d,p) empiricaldispersion=gd3bj scf=xqc pop=npa geom=check

CID_115963574_JID_10815_Energie_neutraal

0 1

--Link1--
%chk=JID_10815.chk
%mem=8GB
%nprocshared=4
# B3LYP/6-311++G(d,p) empiricaldispersion=gd3bj scf=xqc pop=npa geom=check

CID_115963574_JID_10815_Energie_kation

1 2

--Link1--
%chk=JID_10815.chk
%mem=8GB
%nprocshared=4
# B3LYP/6-311++G(d,p) empiricaldispersion=gd3bj scf=xqc pop=npa geom=check

CID_115963574_JID_10815_Energie_anion

-1 2
