%chk=JID_6091.chk
%mem=8GB
%nprocshared=4
# opt freq B3LYP/6-31G(d) empiricaldispersion=gd3bj scf=xqc

CID_64285234_JID_6091_neutraal

0 1
C          0.91725       -0.01547       -0.05397
O          0.48182        1.32534        0.11248
C          1.22782        2.22865       -0.69971
C          0.95818        3.67122       -0.25691
C          1.13380        3.87443        1.25787
N          2.50811        3.64567        1.70131
C          3.03172        3.88737        2.93544
O          4.18800        3.57921        3.19999
C          2.18922        4.57611        3.92831
C          1.19581        3.89755        4.52009
C          0.35002        4.48437        5.50529
C          0.40423        5.71710        6.13737
C         -0.65314        5.91843        7.07257
C         -1.49445        4.83388        7.13639
S         -1.00866        3.58569        6.07980
O          1.81055        4.56553       -0.98079
H          0.27584       -0.66388        0.54883
H          1.94896       -0.12673        0.29339
H          0.83712       -0.31932       -1.10220
H          2.30077        2.00864       -0.63852
H          0.93666        2.10215       -1.74957
H         -0.07716        3.92632       -0.51124
H          0.88146        4.90937        1.51559
H          0.47154        3.21212        1.82363
H          3.10694        3.03609        1.15697
H          2.47263        5.59186        4.16400
H          1.01712        2.85983        4.24166
H          1.17375        6.45521        5.94794
H         -0.78546        6.81334        7.66803
H         -2.37229        4.71155        7.75586
H          2.59409        4.73403       -0.42511

--Link1--
%chk=JID_6091.chk
%mem=8GB
%nprocshared=4
# B3LYP/6-311++G(d,p) empiricaldispersion=gd3bj scf=xqc pop=npa geom=check

CID_64285234_JID_6091_Energie_neutraal

0 1

--Link1--
%chk=JID_6091.chk
%mem=8GB
%nprocshared=4
# B3LYP/6-311++G(d,p) empiricaldispersion=gd3bj scf=xqc pop=npa geom=check

CID_64285234_JID_6091_Energie_kation

1 2

--Link1--
%chk=JID_6091.chk
%mem=8GB
%nprocshared=4
# B3LYP/6-311++G(d,p) empiricaldispersion=gd3bj scf=xqc pop=npa geom=check

CID_64285234_JID_6091_Energie_anion

-1 2
