%chk=JID_1865.chk
%mem=8GB
%nprocshared=4
# opt freq B3LYP/6-31G(d) empiricaldispersion=gd3bj scf=xqc

CID_148302034_JID_1865_neutraal

0 1
C         -0.76900        1.02600        1.21500
C          0.74829        0.55645        1.06647
C          1.07176       -0.93523        1.17927
C          0.34203       -1.67426        0.04335
C          0.94762       -1.24022       -1.30228
C          0.61979        0.23864       -1.52145
C          0.56947        1.13714       -0.31260
C         -1.01382        0.34076       -0.13623
C         -0.91012        0.67667       -1.63016
C         -1.10814       -1.19151        0.05662
N          0.43406       -3.11854        0.20543
H         -0.95169        2.10883        1.24311
H         -1.28840        0.59393        2.07745
H          1.41829        1.13792        1.71119
H          2.15533       -1.09255        1.11085
H          0.75421       -1.30206        2.16341
H          0.53868       -1.82968       -2.13261
H          2.03447       -1.38997       -1.30530
H          1.21680        0.63916       -2.34959
H          0.56935        2.22678       -0.44637
H         -1.50601        0.05556       -2.30796
H         -1.10755        1.72284       -1.90078
H         -1.61166       -1.44236        0.99894
H         -1.69828       -1.65639       -0.74340
H          1.41269       -3.40312        0.22528
H          0.04078       -3.39309        1.10482

--Link1--
%chk=JID_1865.chk
%mem=8GB
%nprocshared=4
# B3LYP/6-311++G(d,p) empiricaldispersion=gd3bj scf=xqc pop=npa geom=check

CID_148302034_JID_1865_Energie_neutraal

0 1

--Link1--
%chk=JID_1865.chk
%mem=8GB
%nprocshared=4
# B3LYP/6-311++G(d,p) empiricaldispersion=gd3bj scf=xqc pop=npa geom=check

CID_148302034_JID_1865_Energie_kation

1 2

--Link1--
%chk=JID_1865.chk
%mem=8GB
%nprocshared=4
# B3LYP/6-311++G(d,p) empiricaldispersion=gd3bj scf=xqc pop=npa geom=check

CID_148302034_JID_1865_Energie_anion

-1 2
