%chk=JID_7909.chk
%mem=8GB
%nprocshared=4
# opt freq B3LYP/6-31G(d) empiricaldispersion=gd3bj scf=xqc

CID_54903707_JID_7909_neutraal

0 1
C          0.92389       -0.04401        0.04765
C          0.36333        0.59672       -1.21768
C          0.81157       -0.12202       -2.51108
C          0.32084       -1.56010       -2.57480
C         -1.04548       -1.88017       -2.50366
C         -1.47329       -3.20705       -2.58024
C         -0.54341       -4.23250       -2.73045
C          0.81475       -3.93291       -2.80282
C          1.24500       -2.60691       -2.72402
N          0.35472        0.69163       -3.65143
C          1.04786        0.39046       -4.91582
C          0.49480       -0.77652       -5.65904
N         -0.75674       -1.09566       -5.91371
C         -0.61117       -2.28464       -6.58042
N          0.65456       -2.67234       -6.78558
O          1.39788       -1.66722       -6.16335
C         -1.76204       -3.07916       -7.04486
H          0.53358       -1.05532        0.19539
H          0.64461        0.55059        0.92347
H          2.01662       -0.09630        0.00979
H         -0.73030        0.63802       -1.14219
H          0.71129        1.63806       -1.24647
H          1.91005       -0.11449       -2.50078
H         -1.79145       -1.09616       -2.39868
H         -2.53385       -3.43812       -2.52811
H         -0.87656       -5.26470       -2.79498
H          1.54088       -4.73201       -2.92730
H          2.31029       -2.39739       -2.78953
H         -0.64635        0.55014       -3.79485
H          0.93162        1.26784       -5.56299
H          2.12609        0.27926       -4.75201
H         -2.70536       -2.61536       -6.74044
H         -1.75912       -3.15952       -8.13620
H         -1.72937       -4.08810       -6.62189

--Link1--
%chk=JID_7909.chk
%mem=8GB
%nprocshared=4
# B3LYP/6-311++G(d,p) empiricaldispersion=gd3bj scf=xqc pop=npa geom=check

CID_54903707_JID_7909_Energie_neutraal

0 1

--Link1--
%chk=JID_7909.chk
%mem=8GB
%nprocshared=4
# B3LYP/6-311++G(d,p) empiricaldispersion=gd3bj scf=xqc pop=npa geom=check

CID_54903707_JID_7909_Energie_kation

1 2

--Link1--
%chk=JID_7909.chk
%mem=8GB
%nprocshared=4
# B3LYP/6-311++G(d,p) empiricaldispersion=gd3bj scf=xqc pop=npa geom=check

CID_54903707_JID_7909_Energie_anion

-1 2
