%chk=JID_8521.chk
%mem=8GB
%nprocshared=4
# opt freq B3LYP/6-31G(d) empiricaldispersion=gd3bj scf=xqc

CID_55109458_JID_8521_neutraal

0 1
C          0.98689        0.08378       -0.05300
C          0.31244        0.49146       -1.35814
C          0.79535       -0.33057       -2.57011
C          0.43074       -1.78373       -2.49115
C          1.21954       -2.87102       -2.82253
N          0.46344       -3.98627       -2.61800
N         -0.76007       -3.70435       -2.13587
C         -0.78495       -2.37240       -2.07455
C          0.80122       -5.38647       -2.83478
C          1.51927       -6.00811       -1.62842
C          2.99106       -5.64862       -1.75377
S          3.33577       -5.74835       -3.49965
O          3.83929       -7.07427       -3.79120
O          4.03941       -4.55097       -3.90629
C          1.65118       -5.65431       -4.07416
N          0.19849        0.25464       -3.77733
C          0.86710       -0.11213       -5.02438
C          0.02237       -1.04520       -5.88168
H          0.73794       -0.94410        0.22679
H          0.65782        0.73933        0.75969
H          2.07556        0.16562       -0.13297
H         -0.77551        0.41569       -1.23623
H          0.53323        1.55322       -1.53121
H          1.88787       -0.22696       -2.61601
H          2.23118       -2.90156       -3.20144
H         -1.68619       -1.88302       -1.72704
H         -0.16457       -5.89091       -2.97556
H          1.41144       -7.09928       -1.67393
H          1.11025       -5.67531       -0.66883
H          3.63879       -6.34073       -1.21152
H          3.18631       -4.62498       -1.42367
H          1.56634       -4.89087       -4.85115
H          1.40711       -6.63332       -4.49941
H         -0.79702        0.04658       -3.81757
H          1.03272        0.81058       -5.59216
H          1.85828       -0.55024       -4.85952
H         -0.94610       -0.59334       -6.12119
H          0.53619       -1.25264       -6.82603
H         -0.16056       -2.00175       -5.38418

--Link1--
%chk=JID_8521.chk
%mem=8GB
%nprocshared=4
# B3LYP/6-311++G(d,p) empiricaldispersion=gd3bj scf=xqc pop=npa geom=check

CID_55109458_JID_8521_Energie_neutraal

0 1

--Link1--
%chk=JID_8521.chk
%mem=8GB
%nprocshared=4
# B3LYP/6-311++G(d,p) empiricaldispersion=gd3bj scf=xqc pop=npa geom=check

CID_55109458_JID_8521_Energie_kation

1 2

--Link1--
%chk=JID_8521.chk
%mem=8GB
%nprocshared=4
# B3LYP/6-311++G(d,p) empiricaldispersion=gd3bj scf=xqc pop=npa geom=check

CID_55109458_JID_8521_Energie_anion

-1 2
