%chk=JID_10665.chk
%mem=8GB
%nprocshared=4
# opt freq B3LYP/6-31G(d) empiricaldispersion=gd3bj scf=xqc

CID_64531351_JID_10665_neutraal

0 1
C          1.21700       -1.43300       -0.36300
C          2.22985       -0.78978        0.59531
N          2.20039        0.66880        0.73912
C          1.19172        1.35433       -0.11021
C         -0.15131        0.63834       -0.14217
C         -1.38896        1.29538       -0.14619
C         -2.57689        0.56527       -0.22508
C         -2.54214       -0.82421       -0.32751
C         -1.31909       -1.49087       -0.35883
C         -0.12765       -0.76534       -0.26311
C          1.13668        2.84822        0.30204
O          1.43211        3.73618       -0.50488
N          0.76788        3.22103        1.56470
C          0.50324        2.39175        2.73091
C          1.67326        2.38871        3.71752
C          1.83472        3.69852        4.41201
N          1.49909        4.90003        3.98767
C          1.88248        5.71454        5.01446
N          2.43409        5.09105        6.05696
N          2.40195        3.81274        5.65063
H          1.57003       -1.34122       -1.39773
H          1.13762       -2.50238       -0.13540
H          3.23922       -1.10586        0.30569
H          2.06409       -1.20291        1.59835
H          3.11425        1.06417        0.51721
H          1.56874        1.34766       -1.14349
H         -1.44986        2.38023       -0.09287
H         -3.53180        1.08500       -0.21897
H         -3.46969       -1.38611       -0.39897
H         -1.30149       -2.57251       -0.46467
H          0.84022        4.21989        1.73901
H         -0.39921        2.79571        3.20390
H          0.28010        1.36739        2.42973
H          1.49397        1.60773        4.46653
H          2.60966        2.14284        3.20434
H          1.75450        6.78958        5.00083
H          2.77313        3.08868        6.25524

--Link1--
%chk=JID_10665.chk
%mem=8GB
%nprocshared=4
# B3LYP/6-311++G(d,p) empiricaldispersion=gd3bj scf=xqc pop=npa geom=check

CID_64531351_JID_10665_Energie_neutraal

0 1

--Link1--
%chk=JID_10665.chk
%mem=8GB
%nprocshared=4
# B3LYP/6-311++G(d,p) empiricaldispersion=gd3bj scf=xqc pop=npa geom=check

CID_64531351_JID_10665_Energie_kation

1 2

--Link1--
%chk=JID_10665.chk
%mem=8GB
%nprocshared=4
# B3LYP/6-311++G(d,p) empiricaldispersion=gd3bj scf=xqc pop=npa geom=check

CID_64531351_JID_10665_Energie_anion

-1 2
