%chk=JID_6053.chk
%mem=8GB
%nprocshared=4
# opt freq B3LYP/6-31G(d) empiricaldispersion=gd3bj scf=xqc

CID_45097835_JID_6053_neutraal

0 1
C          0.98795        0.07206       -0.06828
N          0.88567        1.01771       -1.14467
C          0.96282        2.37750       -1.05398
C          0.81203        2.82714       -2.33528
N          0.59738        1.80014       -3.20790
C          0.65139        0.72108       -2.45938
O          0.52954       -0.52308       -2.90518
C         -0.80677       -0.85177       -3.26210
N          0.87769        4.17860       -2.65641
C          1.07347        4.95754       -1.63755
N          1.20044        4.57296       -0.30427
C          1.15572        3.23433        0.06292
O          1.26259        2.82436        1.21281
C          1.39022        5.57450        0.72921
O          1.17898        6.30717       -1.80748
C          1.13161        6.78776       -3.15639
H          0.08120        0.13985        0.53806
H          1.86946        0.31083        0.53205
H          1.09418       -0.94115       -0.46307
H         -1.41078       -0.97292       -2.35560
H         -1.25729       -0.09860       -3.91664
H         -0.79280       -1.80934       -3.79047
H          1.42868        5.13773        1.73033
H          2.32665        6.10815        0.53790
H          0.56436        6.29213        0.68849
H          1.26202        7.87321       -3.12911
H          1.94796        6.35838       -3.74546
H          0.15978        6.56702       -3.60764

--Link1--
%chk=JID_6053.chk
%mem=8GB
%nprocshared=4
# B3LYP/6-311++G(d,p) empiricaldispersion=gd3bj scf=xqc pop=npa geom=check

CID_45097835_JID_6053_Energie_neutraal

0 1

--Link1--
%chk=JID_6053.chk
%mem=8GB
%nprocshared=4
# B3LYP/6-311++G(d,p) empiricaldispersion=gd3bj scf=xqc pop=npa geom=check

CID_45097835_JID_6053_Energie_kation

1 2

--Link1--
%chk=JID_6053.chk
%mem=8GB
%nprocshared=4
# B3LYP/6-311++G(d,p) empiricaldispersion=gd3bj scf=xqc pop=npa geom=check

CID_45097835_JID_6053_Energie_anion

-1 2
