%chk=JID_8408.chk
%mem=8GB
%nprocshared=4
# opt freq B3LYP/6-31G(d) empiricaldispersion=gd3bj scf=xqc

CID_81183400_JID_8408_neutraal

0 1
C         -2.94600        0.04200        0.02500
C         -1.50812        0.09080        0.44912
C         -0.73782       -1.07663        0.48216
C          0.60159       -1.04647        0.91491
C          1.17116        0.14517        1.37729
C          0.39686        1.31403        1.31069
C         -0.93099        1.28687        0.87514
N          2.54664        0.28230        1.64777
S          1.47794       -2.59508        0.95936
O          1.72109       -2.91028        2.35545
O          0.70623       -3.53174        0.15245
C          3.04614       -2.43343        0.13787
C          2.92323       -2.18572       -1.35914
C          2.60315       -0.73390       -1.65582
O          3.21301        0.15330       -1.05156
N          1.64316       -0.45284       -2.61357
C          0.89784       -1.46134       -3.35194
C          1.17633        0.91740       -2.75787
H         -3.08878       -0.69004       -0.77687
H         -3.57790       -0.23299        0.87505
H         -3.27545        1.01296       -0.35959
H         -1.19178       -2.01913        0.17888
H          0.82710        2.26984        1.60218
H         -1.50558        2.21060        0.86697
H          3.03994        0.48701        0.76393
H          2.73543        1.05626        2.28153
H          3.66505       -1.70059        0.65519
H          3.53577       -3.40460        0.28417
H          3.88665       -2.39119       -1.84117
H          2.19957       -2.87849       -1.78774
H          0.12471       -1.87548       -2.69878
H          0.43218       -1.01281       -4.23450
H          1.56595       -2.25791       -3.68880
H          1.77714        1.62522       -2.18146
H          1.22187        1.19681       -3.81460
H          0.14032        0.97135       -2.41030

--Link1--
%chk=JID_8408.chk
%mem=8GB
%nprocshared=4
# B3LYP/6-311++G(d,p) empiricaldispersion=gd3bj scf=xqc pop=npa geom=check

CID_81183400_JID_8408_Energie_neutraal

0 1

--Link1--
%chk=JID_8408.chk
%mem=8GB
%nprocshared=4
# B3LYP/6-311++G(d,p) empiricaldispersion=gd3bj scf=xqc pop=npa geom=check

CID_81183400_JID_8408_Energie_kation

1 2

--Link1--
%chk=JID_8408.chk
%mem=8GB
%nprocshared=4
# B3LYP/6-311++G(d,p) empiricaldispersion=gd3bj scf=xqc pop=npa geom=check

CID_81183400_JID_8408_Energie_anion

-1 2
