%chk=JID_10887.chk
%mem=8GB
%nprocshared=4
# opt freq B3LYP/6-31G(d) empiricaldispersion=gd3bj scf=xqc

CID_104045183_JID_10887_neutraal

0 1
C          0.93556        0.01330        0.07531
C          0.59701        1.06735        1.12647
C          1.80625        1.44201        1.99603
C          2.66400        2.54157        1.37093
C          1.79213        3.73112        0.93360
C          0.29311        3.43905        1.04143
O          0.00783        2.17823        0.44460
C         -0.52635        4.50084        0.31987
O          3.32828        2.03973        0.21540
C          4.72497        1.68920        0.25466
C          5.01370        1.21220       -1.19745
C          4.83917        2.32545       -2.23272
C          5.70853        3.53215       -1.90251
C          5.46730        4.02856       -0.48169
C          5.62785        2.90831        0.54859
C          5.01959        0.47260        1.19239
N          5.20783        0.78338        2.61838
C          5.22120       -0.42040        3.45434
C          6.45306       -1.27508        3.52709
C          6.06802       -0.41458        4.69537
H          1.60526        0.40924       -0.69388
H          0.02480       -0.30079       -0.44694
H          1.39513       -0.87104        0.52669
H         -0.17456        0.64511        1.78192
H          1.43621        1.81391        2.96095
H          2.38500        0.54327        2.22307
H          3.38656        2.91245        2.10120
H          2.04254        4.00916       -0.09808
H          2.02200        4.60343        1.55809
H         -0.02582        3.42023        2.09142
H         -1.59527        4.27450        0.39863
H         -0.34816        5.49477        0.74135
H         -0.28926        4.52307       -0.74952
H          6.03693        0.82193       -1.27174
H          4.33341        0.39206       -1.46136
H          3.78699        2.63101       -2.28138
H          5.10201        1.94471       -3.22632
H          5.50706        4.33922       -2.61586
H          6.76518        3.26115       -2.01827
H          4.46278        4.46024       -0.40997
H          6.17235        4.83639       -0.25423
H          5.41709        3.33070        1.53643
H          6.67827        2.58914        0.56298
H          4.20507       -0.25367        1.07905
H          5.94055       -0.01951        0.85555
H          4.48540        1.41936        2.94200
H          4.26610       -0.93785        3.52754
H          6.31759       -2.34634        3.61743
H          7.32047       -0.98327        2.94733
H          6.68155        0.45504        4.90072
H          5.67596       -0.90206        5.57969

--Link1--
%chk=JID_10887.chk
%mem=8GB
%nprocshared=4
# B3LYP/6-311++G(d,p) empiricaldispersion=gd3bj scf=xqc pop=npa geom=check

CID_104045183_JID_10887_Energie_neutraal

0 1

--Link1--
%chk=JID_10887.chk
%mem=8GB
%nprocshared=4
# B3LYP/6-311++G(d,p) empiricaldispersion=gd3bj scf=xqc pop=npa geom=check

CID_104045183_JID_10887_Energie_kation

1 2

--Link1--
%chk=JID_10887.chk
%mem=8GB
%nprocshared=4
# B3LYP/6-311++G(d,p) empiricaldispersion=gd3bj scf=xqc pop=npa geom=check

CID_104045183_JID_10887_Energie_anion

-1 2
