%chk=JID_5802.chk
%mem=8GB
%nprocshared=4
# opt freq B3LYP/6-31G(d) empiricaldispersion=gd3bj scf=xqc

CID_115613193_JID_5802_neutraal

0 1
C          0.98517        0.05355        0.08314
C          0.44631       -0.17594        1.48881
C          0.96650        0.85264        2.51667
C          0.61316        2.31390        2.15524
C         -0.87526        2.60722        2.01914
C          0.48673        0.51831        3.94876
N          1.05130       -0.75100        4.41701
C          1.78442       -0.72939        5.59897
C          1.30939       -0.29558        6.83880
C          2.16799       -0.35607        7.94449
C          3.45525       -0.85731        7.79262
C          3.83657       -1.28329        6.53572
N          3.03315       -1.22885        5.45079
C         -0.02504        0.18363        7.02554
N         -1.09066        0.60773        7.20880
H          0.59425        0.97730       -0.35283
H          0.68444       -0.77072       -0.57183
H          2.07856        0.10288        0.08341
H         -0.64932       -0.17785        1.46439
H          0.74485       -1.18583        1.79285
H          2.06425        0.78998        2.51647
H          1.02910        2.98038        2.92146
H          1.11313        2.59229        1.22029
H         -1.41609        2.38817        2.94409
H         -1.02540        3.66774        1.79140
H         -1.32742        2.03101        1.20693
H          0.76770        1.34825        4.60894
H         -0.60554        0.43431        3.97234
H          1.70499       -1.15534        3.74496
H          1.83243       -0.02438        8.92488
H          4.13795       -0.92286        8.63256
H          4.82613       -1.69520        6.35725

--Link1--
%chk=JID_5802.chk
%mem=8GB
%nprocshared=4
# B3LYP/6-311++G(d,p) empiricaldispersion=gd3bj scf=xqc pop=npa geom=check

CID_115613193_JID_5802_Energie_neutraal

0 1

--Link1--
%chk=JID_5802.chk
%mem=8GB
%nprocshared=4
# B3LYP/6-311++G(d,p) empiricaldispersion=gd3bj scf=xqc pop=npa geom=check

CID_115613193_JID_5802_Energie_kation

1 2

--Link1--
%chk=JID_5802.chk
%mem=8GB
%nprocshared=4
# B3LYP/6-311++G(d,p) empiricaldispersion=gd3bj scf=xqc pop=npa geom=check

CID_115613193_JID_5802_Energie_anion

-1 2
