%chk=JID_5905.chk
%mem=8GB
%nprocshared=4
# opt freq B3LYP/6-31G(d) empiricaldispersion=gd3bj scf=xqc

CID_116425123_JID_5905_neutraal

0 1
C          0.99045        0.06810       -0.07260
C         -0.50571       -0.06512       -0.38114
C         -1.03453        1.16062       -1.14130
C         -0.57020        1.17922       -2.59543
C         -0.87558       -0.14521       -3.30117
N         -0.29766       -1.27350       -2.56932
C         -0.80679       -1.35006       -1.19541
C         -0.34782       -2.55751       -3.30048
C         -1.62744       -3.44411       -3.34019
C         -2.88310       -2.74621       -3.85079
C         -1.35168       -4.65689       -4.24361
O         -1.49570       -5.82496       -3.90815
O         -0.98999       -4.35325       -5.50401
O         -1.91020       -3.94149       -2.01673
O         -1.20084       -0.11766        0.87243
H          1.33764       -0.78113        0.52728
H          1.18274        0.96551        0.52655
H          1.60503        0.11897       -0.97595
H         -2.13282        1.15703       -1.11492
H         -0.73422        2.08690       -0.63606
H          0.50617        1.38409       -2.64188
H         -1.06736        1.99917       -3.12665
H         -0.45235       -0.09407       -4.31140
H         -1.95983       -0.24554       -3.40842
H         -0.35514       -2.20200       -0.67055
H         -1.89061       -1.52222       -1.18355
H         -0.00219       -2.36632       -4.32496
H          0.44808       -3.17406       -2.85784
H         -2.70402       -2.23035       -4.79964
H         -3.68857       -3.47226       -4.01640
H         -3.27242       -2.03191       -3.11901
H         -0.88181       -5.22318       -5.94490
H         -2.29654       -4.83309       -2.12506
H         -0.91100       -0.92405        1.33338

--Link1--
%chk=JID_5905.chk
%mem=8GB
%nprocshared=4
# B3LYP/6-311++G(d,p) empiricaldispersion=gd3bj scf=xqc pop=npa geom=check

CID_116425123_JID_5905_Energie_neutraal

0 1

--Link1--
%chk=JID_5905.chk
%mem=8GB
%nprocshared=4
# B3LYP/6-311++G(d,p) empiricaldispersion=gd3bj scf=xqc pop=npa geom=check

CID_116425123_JID_5905_Energie_kation

1 2

--Link1--
%chk=JID_5905.chk
%mem=8GB
%nprocshared=4
# B3LYP/6-311++G(d,p) empiricaldispersion=gd3bj scf=xqc pop=npa geom=check

CID_116425123_JID_5905_Energie_anion

-1 2
