%chk=JID_9401.chk
%mem=8GB
%nprocshared=4
# opt freq B3LYP/6-31G(d) empiricaldispersion=gd3bj scf=xqc

CID_103028600_JID_9401_neutraal

0 1
C          1.03533        0.09326        0.00732
C          0.55265       -0.25876       -1.41004
C          1.08551       -1.66744       -1.74030
C         -0.99946       -0.26608       -1.48807
C         -1.74725        0.99878       -0.98938
C         -1.57534        2.25961       -1.87321
C         -1.98102        2.14917       -3.31941
N         -1.17108        2.43049       -4.31899
C         -1.82748        2.29852       -5.52983
C         -1.26332        2.51218       -6.80364
C         -2.04570        2.33445       -7.94923
C         -3.37736        1.94657       -7.83891
C         -3.96116        1.73393       -6.58576
C         -3.16649        1.92014       -5.44239
S         -3.59143        1.76224       -3.78392
N         -3.15461        0.59257       -0.75597
C         -3.90211        1.53146        0.06867
O          1.12582        0.74329       -2.25707
C          1.17952        0.45578       -3.64808
H          0.56863       -0.54383        0.76565
H          0.83704        1.14207        0.25275
H          2.12310       -0.02469        0.08411
H          0.77127       -2.39963       -0.98826
H          0.72014       -2.01768       -2.71194
H          2.18027       -1.67189       -1.78967
H         -1.31857       -0.48822       -2.51366
H         -1.34231       -1.11828       -0.88184
H         -1.34293        1.24676       -0.00130
H         -2.12369        3.10109       -1.43119
H         -0.52483        2.57190       -1.83649
H         -0.22438        2.81611       -6.88297
H         -1.60752        2.50229       -8.93032
H         -3.97488        1.81042       -8.73808
H         -5.00179        1.43645       -6.50105
H         -3.63140        0.46457       -1.64943
H         -4.04660        2.49487       -0.42808
H         -4.89403        1.11713        0.27489
H         -3.41084        1.69453        1.03316
H          1.97169       -0.26969       -3.85400
H          0.22593        0.08310       -4.02834
H          1.43286        1.37905       -4.17616

--Link1--
%chk=JID_9401.chk
%mem=8GB
%nprocshared=4
# B3LYP/6-311++G(d,p) empiricaldispersion=gd3bj scf=xqc pop=npa geom=check

CID_103028600_JID_9401_Energie_neutraal

0 1

--Link1--
%chk=JID_9401.chk
%mem=8GB
%nprocshared=4
# B3LYP/6-311++G(d,p) empiricaldispersion=gd3bj scf=xqc pop=npa geom=check

CID_103028600_JID_9401_Energie_kation

1 2

--Link1--
%chk=JID_9401.chk
%mem=8GB
%nprocshared=4
# B3LYP/6-311++G(d,p) empiricaldispersion=gd3bj scf=xqc pop=npa geom=check

CID_103028600_JID_9401_Energie_anion

-1 2
