%chk=JID_5785.chk
%mem=8GB
%nprocshared=4
# opt freq B3LYP/6-31G(d) empiricaldispersion=gd3bj scf=xqc

CID_108099516_JID_5785_neutraal

0 1
C          0.91967       -0.00842        0.05896
O          0.51786       -1.19849       -0.60644
C          1.07993       -2.35376        0.01323
C          0.81356       -3.57570       -0.85693
C          1.34856       -3.43594       -2.28454
N          2.81111       -3.23301       -2.30941
C          3.34881       -1.97794       -2.55061
C          4.65818       -1.71058       -2.54256
C          5.60595       -2.81772       -2.25255
O          6.80569       -2.56847       -2.20641
C          5.03549       -4.17548       -2.01355
C          3.69369       -4.28160       -2.06011
C          5.88866       -5.34569       -1.74335
O          7.10260       -5.40663       -1.80082
O          5.19088       -6.44756       -1.39331
H          0.41869        0.83819       -0.41797
H          2.00123        0.13151       -0.03111
H          0.62906       -0.03884        1.11355
H          2.15629       -2.21867        0.16854
H          0.61048       -2.49392        0.99379
H          1.24283       -4.46084       -0.37371
H         -0.26975       -3.73598       -0.92173
H          1.10350       -4.34481       -2.84898
H          0.83460       -2.61710       -2.80375
H          2.62125       -1.19301       -2.74386
H          5.06959       -0.72788       -2.72491
H          3.19292       -5.23334       -1.90039
H          5.89736       -7.11276       -1.24751

--Link1--
%chk=JID_5785.chk
%mem=8GB
%nprocshared=4
# B3LYP/6-311++G(d,p) empiricaldispersion=gd3bj scf=xqc pop=npa geom=check

CID_108099516_JID_5785_Energie_neutraal

0 1

--Link1--
%chk=JID_5785.chk
%mem=8GB
%nprocshared=4
# B3LYP/6-311++G(d,p) empiricaldispersion=gd3bj scf=xqc pop=npa geom=check

CID_108099516_JID_5785_Energie_kation

1 2

--Link1--
%chk=JID_5785.chk
%mem=8GB
%nprocshared=4
# B3LYP/6-311++G(d,p) empiricaldispersion=gd3bj scf=xqc pop=npa geom=check

CID_108099516_JID_5785_Energie_anion

-1 2
