%chk=JID_4912.chk
%mem=8GB
%nprocshared=4
# opt freq B3LYP/6-31G(d) empiricaldispersion=gd3bj scf=xqc

CID_23270908_JID_4912_neutraal

0 1
C          1.01879       -0.06158       -0.07652
C          0.35553       -1.42766       -0.33482
C          0.66961       -2.41174        0.79607
C          0.20755       -1.89174        2.12817
O         -0.94741       -1.68615        2.45959
O          1.22249       -1.63329        2.97158
C         -1.16562       -1.31280       -0.51339
O         -1.91957       -2.20784       -0.86798
O         -1.67595       -0.10581       -0.20093
S          1.08906       -1.98114       -1.97391
C          0.54875       -3.71912       -2.10115
C          1.65504       -4.64449       -1.65917
O          1.88877       -4.99662       -0.51323
O          2.44889       -5.05141       -2.66998
H          0.63752        0.40826        0.83762
H          0.82250        0.64903       -0.88929
H          2.10522       -0.15498        0.04070
H          0.16667       -3.37600        0.66500
H          1.74673       -2.61184        0.85275
H          0.78919       -1.31508        3.79173
H         -2.64520       -0.22348       -0.29213
H         -0.35438       -3.94529       -1.53228
H          0.31393       -3.93161       -3.14971
H          3.14482       -5.58521       -2.23263

--Link1--
%chk=JID_4912.chk
%mem=8GB
%nprocshared=4
# B3LYP/6-311++G(d,p) empiricaldispersion=gd3bj scf=xqc pop=npa geom=check

CID_23270908_JID_4912_Energie_neutraal

0 1

--Link1--
%chk=JID_4912.chk
%mem=8GB
%nprocshared=4
# B3LYP/6-311++G(d,p) empiricaldispersion=gd3bj scf=xqc pop=npa geom=check

CID_23270908_JID_4912_Energie_kation

1 2

--Link1--
%chk=JID_4912.chk
%mem=8GB
%nprocshared=4
# B3LYP/6-311++G(d,p) empiricaldispersion=gd3bj scf=xqc pop=npa geom=check

CID_23270908_JID_4912_Energie_anion

-1 2
