%chk=JID_9763.chk
%mem=8GB
%nprocshared=4
# opt freq B3LYP/6-31G(d) empiricaldispersion=gd3bj scf=xqc

CID_66440710_JID_9763_neutraal

0 1
C          0.92832        0.06952       -0.00533
C          0.50670        0.73134       -1.30861
C          0.70791       -0.13482       -2.55951
C          0.25676       -1.56121       -2.42951
C          1.01654       -2.71712       -2.58653
C          0.18183       -3.74316       -2.10301
N         -0.99258       -3.29686       -1.66901
N         -0.99557       -1.97632       -1.98877
C         -2.15901       -1.20063       -1.75224
C         -2.92458       -1.46391       -0.60822
C         -3.99768       -0.63033       -0.27570
C         -4.33806        0.42288       -1.13619
C         -3.62219        0.64859       -2.32020
C         -2.51719       -0.15882       -2.61523
C         -4.00158        1.78441       -3.22377
C         -4.74846       -0.82090        1.00890
C          2.43183       -2.86155       -3.03490
N          2.54539       -2.34576       -4.39730
C          3.91637       -2.43645       -4.87637
H          0.28159       -0.77065        0.26106
H          0.87345        0.79395        0.81400
H          1.96026       -0.29097       -0.06517
H         -0.53483        1.05094       -1.21563
H          1.08535        1.65461       -1.43872
H          0.23188        0.33804       -3.42472
H          1.78213       -0.12463       -2.78406
H          0.40251       -4.79946       -2.00992
H         -2.64039       -2.27546        0.06010
H         -5.17044        1.07583       -0.87897
H         -1.96088        0.01525       -3.53202
H         -5.08996        1.84546       -3.32693
H         -3.62617        2.72838       -2.81692
H         -3.58638        1.64815       -4.22789
H         -4.61014        0.05341        1.65405
H         -5.81561       -0.95708        0.80999
H         -4.39211       -1.69940        1.55685
H          3.08153       -2.30124       -2.35172
H          2.73278       -3.91556       -2.99820
H          1.93100       -2.88368       -5.00693
H          4.26600       -3.47351       -4.90473
H          3.97599       -2.03261       -5.89178
H          4.59442       -1.84752       -4.24973

--Link1--
%chk=JID_9763.chk
%mem=8GB
%nprocshared=4
# B3LYP/6-311++G(d,p) empiricaldispersion=gd3bj scf=xqc pop=npa geom=check

CID_66440710_JID_9763_Energie_neutraal

0 1

--Link1--
%chk=JID_9763.chk
%mem=8GB
%nprocshared=4
# B3LYP/6-311++G(d,p) empiricaldispersion=gd3bj scf=xqc pop=npa geom=check

CID_66440710_JID_9763_Energie_kation

1 2

--Link1--
%chk=JID_9763.chk
%mem=8GB
%nprocshared=4
# B3LYP/6-311++G(d,p) empiricaldispersion=gd3bj scf=xqc pop=npa geom=check

CID_66440710_JID_9763_Energie_anion

-1 2
