%chk=JID_4109.chk
%mem=8GB
%nprocshared=4
# opt freq B3LYP/6-31G(d) empiricaldispersion=gd3bj scf=xqc

CID_115712374_JID_4109_neutraal

0 1
C          0.98643       -0.01391        0.09809
C          0.48202        1.41777        0.22298
C          0.92896        2.30212       -0.94635
C          0.35607        1.88506       -2.30580
C          0.41143        3.14475       -3.17109
C          0.84990        4.28003       -2.24478
C          0.54849        3.79547       -0.81951
N         -0.86466        3.96337       -0.48639
C         -1.18187        5.06735        0.42037
C         -1.21143        6.46283       -0.23254
C          0.14071        7.15096       -0.29613
C          0.28683        7.75973        1.08412
O         -1.03616        8.00022        1.57776
C         -1.97403        7.45309        0.64237
H          0.56864       -0.50829       -0.78413
H          0.69172       -0.59452        0.97807
H          2.07825       -0.04064        0.02505
H         -0.61123        1.39601        0.29944
H          0.85984        1.84324        1.16047
H          2.02607        2.24618       -1.01021
H          0.93207        1.06874       -2.75388
H         -0.68184        1.54359       -2.21362
H         -0.57627        3.35028       -3.59886
H          1.11183        3.03067       -4.00498
H          0.35833        5.22211       -2.50568
H          1.93019        4.44053       -2.35300
H          1.19810        4.27540       -0.07938
H         -1.44473        4.00322       -1.32256
H         -2.18640        4.84778        0.80281
H         -0.52572        5.04131        1.29853
H         -1.68392        6.39084       -1.21887
H          0.09752        7.95614       -1.04069
H          0.98956        6.51803       -0.55444
H          0.78425        7.07208        1.77566
H          0.84823        8.69838        1.06671
H         -2.35543        8.28505        0.03878
H         -2.81803        7.01482        1.18282

--Link1--
%chk=JID_4109.chk
%mem=8GB
%nprocshared=4
# B3LYP/6-311++G(d,p) empiricaldispersion=gd3bj scf=xqc pop=npa geom=check

CID_115712374_JID_4109_Energie_neutraal

0 1

--Link1--
%chk=JID_4109.chk
%mem=8GB
%nprocshared=4
# B3LYP/6-311++G(d,p) empiricaldispersion=gd3bj scf=xqc pop=npa geom=check

CID_115712374_JID_4109_Energie_kation

1 2

--Link1--
%chk=JID_4109.chk
%mem=8GB
%nprocshared=4
# B3LYP/6-311++G(d,p) empiricaldispersion=gd3bj scf=xqc pop=npa geom=check

CID_115712374_JID_4109_Energie_anion

-1 2
