%chk=JID_5161.chk
%mem=8GB
%nprocshared=4
# opt freq B3LYP/6-31G(d) empiricaldispersion=gd3bj scf=xqc

CID_61123616_JID_5161_neutraal

0 1
C          2.49600       -0.00700       -0.12600
C          1.07889        0.01864        0.44425
C          0.40687        1.36084        0.15466
C         -1.03309        1.39919        0.66761
C         -1.92354        0.27786        0.07083
C         -1.20726       -1.07685        0.34399
C          0.24858       -1.13298       -0.12332
C         -2.27740        0.53762       -1.43461
S         -2.32935       -0.61339       -2.64966
N         -2.67968        1.80269       -1.76965
N         -3.23987        0.19116        0.75517
C         -4.15333        1.14695        1.07497
O         -5.22908        0.84735        1.57701
O         -3.76800        2.41021        0.77153
C         -4.73534        3.40597        1.11109
H          2.49141        0.12250       -1.21367
H          3.10310        0.79473        0.30749
H          2.98803       -0.95899        0.09951
H          1.14930       -0.10777        1.53284
H          0.97623        2.16716        0.63330
H          0.41811        1.56636       -0.92297
H         -1.42062        2.39993        0.45838
H         -1.02167        1.30724        1.76253
H         -1.76052       -1.91785       -0.09150
H         -1.21634       -1.26486        1.42797
H          0.29668       -1.11976       -1.21727
H          0.68501       -2.08942        0.19042
H         -2.94627        2.46957       -1.05113
H         -3.02577        1.96848       -2.70743
H         -3.62893       -0.73564        0.87513
H         -5.66929        3.23596        0.56598
H         -4.91028        3.41842        2.19129
H         -4.33552        4.37922        0.81320

--Link1--
%chk=JID_5161.chk
%mem=8GB
%nprocshared=4
# B3LYP/6-311++G(d,p) empiricaldispersion=gd3bj scf=xqc pop=npa geom=check

CID_61123616_JID_5161_Energie_neutraal

0 1

--Link1--
%chk=JID_5161.chk
%mem=8GB
%nprocshared=4
# B3LYP/6-311++G(d,p) empiricaldispersion=gd3bj scf=xqc pop=npa geom=check

CID_61123616_JID_5161_Energie_kation

1 2

--Link1--
%chk=JID_5161.chk
%mem=8GB
%nprocshared=4
# B3LYP/6-311++G(d,p) empiricaldispersion=gd3bj scf=xqc pop=npa geom=check

CID_61123616_JID_5161_Energie_anion

-1 2
