%chk=JID_3882.chk
%mem=8GB
%nprocshared=4
# opt freq B3LYP/6-31G(d) empiricaldispersion=gd3bj scf=xqc

CID_5352574_JID_3882_neutraal

0 1
C          1.12849        4.45168        1.25437
C          1.32788        3.95711        2.66158
C          0.57662        4.43126        3.67905
C          0.71252        4.12764        5.15481
C         -0.13353        2.95423        5.68428
C          0.49409        1.59083        5.53422
C          1.74727        1.28958        5.91715
C          2.45181        0.00084        5.59263
C          3.37431        0.10755        4.36241
C          4.49781        1.10117        4.50006
C          4.62834        2.36418        4.05471
C          3.72584        3.32467        3.31117
C          2.35734        2.85639        2.81533
H          2.06688        4.85532        0.86028
H          0.37590        5.24498        1.19608
H          0.80053        3.63304        0.60557
H         -0.18240        5.18027        3.45306
H          1.76702        4.01821        5.42638
H          0.38531        5.03395        5.68304
H         -0.33798        3.11084        6.75108
H         -1.11009        2.95022        5.18423
H         -0.09832        0.84846        5.00343
H          2.35076        2.03687        6.42863
H          3.03160       -0.31059        6.47023
H          1.71755       -0.79398        5.41145
H          3.83434       -0.87742        4.20436
H          2.79314        0.27975        3.45298
H          5.35022        0.70015        5.05228
H          5.58109        2.83920        4.30382
H          4.28762        3.69606        2.44359
H          3.60056        4.19405        3.96932
H          1.92297        2.12532        3.48310
H          2.48064        2.32247        1.86405

--Link1--
%chk=JID_3882.chk
%mem=8GB
%nprocshared=4
# B3LYP/6-311++G(d,p) empiricaldispersion=gd3bj scf=xqc pop=npa geom=check

CID_5352574_JID_3882_Energie_neutraal

0 1

--Link1--
%chk=JID_3882.chk
%mem=8GB
%nprocshared=4
# B3LYP/6-311++G(d,p) empiricaldispersion=gd3bj scf=xqc pop=npa geom=check

CID_5352574_JID_3882_Energie_kation

1 2

--Link1--
%chk=JID_3882.chk
%mem=8GB
%nprocshared=4
# B3LYP/6-311++G(d,p) empiricaldispersion=gd3bj scf=xqc pop=npa geom=check

CID_5352574_JID_3882_Energie_anion

-1 2
