%chk=JID_6739.chk
%mem=8GB
%nprocshared=4
# opt freq B3LYP/6-31G(d) empiricaldispersion=gd3bj scf=xqc

CID_141730273_JID_6739_neutraal

0 1
C          1.34400       -0.22500        0.03600
C          0.94181        0.88840       -0.69824
C         -0.39770        1.27612       -0.69656
C         -1.34715        0.55149        0.03797
C         -0.93375       -0.57407        0.76240
C          0.40706       -0.95954        0.76082
C         -2.78185        1.02508        0.10189
C         -3.08745        1.79085        1.39647
N         -2.27147        3.00395        1.44108
C         -2.32072        3.74586        2.48660
N         -3.04690        3.53728        3.61496
N         -1.56187        4.87077        2.44548
C         -0.27911        4.78602        2.57296
N          0.42361        5.95253        2.48109
N          0.59257        3.75342        2.83413
O          0.08292        2.45684        2.73980
H          2.38846       -0.52493        0.03940
H          1.67095        1.45986       -1.26597
H         -0.69819        2.16312       -1.25110
H         -1.65119       -1.14757        1.34403
H          0.72251       -1.82874        1.33164
H         -3.00214        1.65734       -0.76765
H         -3.44632        0.15561        0.02394
H         -4.15153        2.05421        1.40743
H         -2.87874        1.14616        2.25848
H         -2.69461        4.10672        4.37374
H         -3.11598        2.56457        3.87531
H          1.07717        6.07772        3.24469
H         -0.22319        6.73478        2.43009
H          1.48406        3.85883        2.35485
H         -0.39141        2.44584        1.87546

--Link1--
%chk=JID_6739.chk
%mem=8GB
%nprocshared=4
# B3LYP/6-311++G(d,p) empiricaldispersion=gd3bj scf=xqc pop=npa geom=check

CID_141730273_JID_6739_Energie_neutraal

0 1

--Link1--
%chk=JID_6739.chk
%mem=8GB
%nprocshared=4
# B3LYP/6-311++G(d,p) empiricaldispersion=gd3bj scf=xqc pop=npa geom=check

CID_141730273_JID_6739_Energie_kation

1 2

--Link1--
%chk=JID_6739.chk
%mem=8GB
%nprocshared=4
# B3LYP/6-311++G(d,p) empiricaldispersion=gd3bj scf=xqc pop=npa geom=check

CID_141730273_JID_6739_Energie_anion

-1 2
