%chk=JID_4183.chk
%mem=8GB
%nprocshared=4
# opt freq B3LYP/6-31G(d) empiricaldispersion=gd3bj scf=xqc

CID_150361546_JID_4183_neutraal

0 1
C          2.49300        0.69800        0.05600
C          2.65071       -0.65047        0.34959
C          1.52998       -1.47910        0.44421
C          0.21633       -0.97873        0.24465
C          0.08013        0.39314       -0.04823
C          1.21564        1.21916       -0.14143
C         -1.20020        0.90029       -0.23785
N         -2.31440        0.14924       -0.15229
N         -2.19747       -1.17595        0.12919
C         -0.97496       -1.73424        0.31696
S         -1.01677       -3.48515        0.68941
N         -0.32122       -4.08305       -0.71563
N         -0.44820       -5.31647       -0.81966
N         -0.54820       -6.44798       -0.92795
H          3.36373        1.34494       -0.01883
H          3.64522       -1.06222        0.50450
H          1.69534       -2.52973        0.67389
H          1.11197        2.27869       -0.36876
H         -1.37861        1.94591       -0.46628

--Link1--
%chk=JID_4183.chk
%mem=8GB
%nprocshared=4
# B3LYP/6-311++G(d,p) empiricaldispersion=gd3bj scf=xqc pop=npa geom=check

CID_150361546_JID_4183_Energie_neutraal

0 1

--Link1--
%chk=JID_4183.chk
%mem=8GB
%nprocshared=4
# B3LYP/6-311++G(d,p) empiricaldispersion=gd3bj scf=xqc pop=npa geom=check

CID_150361546_JID_4183_Energie_kation

1 2

--Link1--
%chk=JID_4183.chk
%mem=8GB
%nprocshared=4
# B3LYP/6-311++G(d,p) empiricaldispersion=gd3bj scf=xqc pop=npa geom=check

CID_150361546_JID_4183_Energie_anion

-1 2
