%chk=JID_8080.chk
%mem=8GB
%nprocshared=4
# opt freq B3LYP/6-31G(d) empiricaldispersion=gd3bj scf=xqc

CID_881008_JID_8080_neutraal

0 1
C          1.34400       -0.22500        0.03600
C          0.71801        0.98746       -0.24543
C         -0.67399        1.07912       -0.21181
C         -1.45440       -0.04270        0.10512
C         -0.81346       -1.25806        0.37949
C          0.57903       -1.34706        0.34718
C         -2.96044        0.06915        0.15936
C         -3.43953        0.98997        1.27023
O         -3.85402        2.12459        1.00619
N         -3.30974        0.65060        2.58848
C         -3.02962       -0.58215        3.20495
C         -3.58272       -1.77270        2.71696
C         -3.33808       -2.99069        3.35305
C         -2.55157       -3.02865        4.49667
C         -2.02345       -1.84637        5.01319
C         -2.26090       -0.60707        4.38938
C         -1.64004        0.65623        4.94348
O         -0.89861        0.42891        6.13726
H          2.42811       -0.29603        0.01151
H          1.31346        1.86300       -0.49053
H         -1.14888        2.03414       -0.43132
H         -1.39048       -2.14533        0.62891
H          1.06670       -2.29301        0.56792
H         -3.30561        0.49214       -0.79396
H         -3.43800       -0.90904        0.20938
H         -3.37789        1.46618        3.18346
H         -4.26896       -1.77300        1.87694
H         -3.77936       -3.90558        2.96628
H         -2.35805       -3.97330        4.99823
H         -1.41419       -1.89769        5.91425
H         -0.95659        1.08167        4.20081
H         -2.42477        1.38124        5.18164
H         -0.48329        1.27571        6.37129

--Link1--
%chk=JID_8080.chk
%mem=8GB
%nprocshared=4
# B3LYP/6-311++G(d,p) empiricaldispersion=gd3bj scf=xqc pop=npa geom=check

CID_881008_JID_8080_Energie_neutraal

0 1

--Link1--
%chk=JID_8080.chk
%mem=8GB
%nprocshared=4
# B3LYP/6-311++G(d,p) empiricaldispersion=gd3bj scf=xqc pop=npa geom=check

CID_881008_JID_8080_Energie_kation

1 2

--Link1--
%chk=JID_8080.chk
%mem=8GB
%nprocshared=4
# B3LYP/6-311++G(d,p) empiricaldispersion=gd3bj scf=xqc pop=npa geom=check

CID_881008_JID_8080_Energie_anion

-1 2
