%chk=JID_8601.chk
%mem=8GB
%nprocshared=4
# opt freq B3LYP/6-31G(d) empiricaldispersion=gd3bj scf=xqc

CID_52044499_JID_8601_neutraal

0 1
C          1.05171        0.08418        0.01548
C          1.32589        0.49433       -1.41809
O          1.60394       -0.68771       -2.17531
C          1.96746       -0.45905       -3.47021
O          2.08390        0.65550       -3.96933
C          2.19185       -1.68644       -4.21311
C          2.57187       -1.79775       -5.53551
N          2.60464       -3.14808       -5.78841
N          2.28598       -3.82234       -4.65600
N          2.03430       -2.94379       -3.69502
C          2.88962       -3.81687       -7.00616
C          2.79406       -5.21614       -7.06576
C          3.03340       -5.89829       -8.26297
C          3.39483       -5.17881       -9.40144
C          3.50375       -3.78692       -9.34628
C          3.24877       -3.10273       -8.15579
O          2.88590       -7.25583       -8.18647
C          2.92589       -7.97660       -9.41168
H          0.21906       -0.62542        0.06263
H          0.80993        0.95508        0.63109
H          1.92422       -0.41987        0.44424
H          0.44461        0.99395       -1.83557
H          2.18489        1.17392       -1.44883
H          2.78333       -1.04392       -6.27688
H          2.51637       -5.79776       -6.18768
H          3.60287       -5.67075      -10.34593
H          3.78766       -3.23338      -10.23874
H          3.34343       -2.02102       -8.16228
H          2.16359       -7.61522      -10.11027
H          3.92411       -7.93477       -9.85911
H          2.70328       -9.02485       -9.19027

--Link1--
%chk=JID_8601.chk
%mem=8GB
%nprocshared=4
# B3LYP/6-311++G(d,p) empiricaldispersion=gd3bj scf=xqc pop=npa geom=check

CID_52044499_JID_8601_Energie_neutraal

0 1

--Link1--
%chk=JID_8601.chk
%mem=8GB
%nprocshared=4
# B3LYP/6-311++G(d,p) empiricaldispersion=gd3bj scf=xqc pop=npa geom=check

CID_52044499_JID_8601_Energie_kation

1 2

--Link1--
%chk=JID_8601.chk
%mem=8GB
%nprocshared=4
# B3LYP/6-311++G(d,p) empiricaldispersion=gd3bj scf=xqc pop=npa geom=check

CID_52044499_JID_8601_Energie_anion

-1 2
