%chk=JID_8496.chk
%mem=8GB
%nprocshared=4
# opt freq B3LYP/6-31G(d) empiricaldispersion=gd3bj scf=xqc

CID_10443897_JID_8496_neutraal

0 1
C          0.02300       -2.75400       -0.05100
C          0.00782       -1.23400       -0.03324
C          1.21654       -0.52015       -0.29032
C          2.46112       -1.17368       -0.50107
C          3.64171       -0.48608       -0.77459
C          3.61741        0.88950       -0.84656
C          2.41685        1.56306       -0.62503
C          1.19540        0.89541       -0.32507
C         -0.02884        1.59033       -0.03970
C         -1.22483        0.87476        0.28782
C         -2.45181        1.51178        0.62578
C         -3.61233        0.80564        0.94221
C         -3.58426       -0.57176        0.94988
C         -2.39635       -1.22954        0.63814
C         -1.20117       -0.54425        0.29105
C         -0.01004        3.11896       -0.00627
C          0.71667        3.62143        1.23058
N          1.31955        4.03828        2.25665
H          0.74625       -3.15448       -0.76634
H          0.24657       -3.13929        0.94820
H         -0.92595       -3.17071       -0.39949
H          2.54632       -2.25505       -0.43525
H          4.57028       -1.02995       -0.92348
H          4.52692        1.44587       -1.05619
H          2.47415        2.64696       -0.68009
H         -2.54602        2.59218        0.66323
H         -4.52667        1.33772        1.19065
H         -4.47406       -1.14046        1.20514
H         -2.42778       -2.31458        0.68905
H          0.48745        3.49883       -0.90688
H         -1.00019        3.57422       -0.04899

--Link1--
%chk=JID_8496.chk
%mem=8GB
%nprocshared=4
# B3LYP/6-311++G(d,p) empiricaldispersion=gd3bj scf=xqc pop=npa geom=check

CID_10443897_JID_8496_Energie_neutraal

0 1

--Link1--
%chk=JID_8496.chk
%mem=8GB
%nprocshared=4
# B3LYP/6-311++G(d,p) empiricaldispersion=gd3bj scf=xqc pop=npa geom=check

CID_10443897_JID_8496_Energie_kation

1 2

--Link1--
%chk=JID_8496.chk
%mem=8GB
%nprocshared=4
# B3LYP/6-311++G(d,p) empiricaldispersion=gd3bj scf=xqc pop=npa geom=check

CID_10443897_JID_8496_Energie_anion

-1 2
