%chk=JID_7194.chk
%mem=8GB
%nprocshared=4
# opt freq B3LYP/6-31G(d) empiricaldispersion=gd3bj scf=xqc

CID_83052881_JID_7194_neutraal

0 1
C          1.08095       -0.05226       -0.02676
C         -0.41403        0.15440        0.15889
C         -0.96335        1.38922       -0.56521
C         -0.73098        1.41356       -2.08957
C         -1.35744        2.65214       -2.75334
C         -0.95685        2.72421       -4.23284
C         -1.20620        1.40166       -4.96524
C         -0.60965        0.21447       -4.20131
N         -1.12574        0.19940       -2.83073
C         -2.38672       -0.36593       -2.59361
O         -3.24587        0.18230       -1.90363
C         -2.59984       -1.79114       -3.09618
C         -4.07332       -2.11534       -3.35257
C         -4.68170       -1.37508       -4.54981
C         -4.02395       -1.65152       -5.90809
C         -3.95437       -3.12157       -6.32839
N         -5.27546       -3.71887       -6.46674
H          1.32637       -0.30306       -1.06289
H          1.42637       -0.87850        0.60299
H          1.64003        0.84529        0.25567
H         -0.94611       -0.74679       -0.16413
H         -0.61960        0.26635        1.23044
H         -2.02892        1.48569       -0.33067
H         -0.49186        2.28185       -0.13230
H          0.35718        1.49733       -2.22125
H         -1.02763        3.56564       -2.24510
H         -2.45070        2.61748       -2.67696
H         -1.50560        3.53336       -4.72745
H          0.10934        2.97397       -4.30192
H         -2.28773        1.25781       -5.08022
H         -0.77798        1.44951       -5.97245
H         -0.83224       -0.70577       -4.73972
H          0.48268        0.29723       -4.15286
H         -2.00555       -2.04135       -3.97190
H         -2.23817       -2.44466       -2.29160
H         -4.17878       -3.19675       -3.49596
H         -4.66580       -1.87371       -2.46129
H         -5.74715       -1.62892       -4.60716
H         -4.64415       -0.29453       -4.36444
H         -4.57172       -1.08705       -6.67412
H         -3.00769       -1.24163       -5.90986
H         -3.44292       -3.18554       -7.29524
H         -3.35809       -3.70142       -5.61661
H         -5.17996       -4.69604       -6.74041
H         -5.75288       -3.72363       -5.56634

--Link1--
%chk=JID_7194.chk
%mem=8GB
%nprocshared=4
# B3LYP/6-311++G(d,p) empiricaldispersion=gd3bj scf=xqc pop=npa geom=check

CID_83052881_JID_7194_Energie_neutraal

0 1

--Link1--
%chk=JID_7194.chk
%mem=8GB
%nprocshared=4
# B3LYP/6-311++G(d,p) empiricaldispersion=gd3bj scf=xqc pop=npa geom=check

CID_83052881_JID_7194_Energie_kation

1 2

--Link1--
%chk=JID_7194.chk
%mem=8GB
%nprocshared=4
# B3LYP/6-311++G(d,p) empiricaldispersion=gd3bj scf=xqc pop=npa geom=check

CID_83052881_JID_7194_Energie_anion

-1 2
