%chk=JID_8674.chk
%mem=8GB
%nprocshared=4
# opt freq B3LYP/6-31G(d) empiricaldispersion=gd3bj scf=xqc

CID_79019739_JID_8674_neutraal

0 1
C          2.49200        0.00400       -0.01400
C          1.07114        0.20318        0.44612
C          0.21864       -0.91786        0.41569
C         -1.10240       -0.83512        0.85267
C         -1.60199        0.37460        1.31643
C         -0.78044        1.50303        1.34466
C          0.55944        1.43464        0.91968
N          1.34830        2.62920        0.92825
C          1.28130        3.72641        1.78668
C          2.09419        4.70986        1.23871
C          2.69575        4.08631        0.11905
N          2.27847        2.83131       -0.03572
C          3.69519        4.65118       -0.82270
C          2.34391        6.09817        1.73906
C          1.60003        7.17742        0.94588
C          0.07527        7.14296        1.07128
N         -0.37481        7.44324        2.42658
C          0.53477        3.74394        3.07424
H          2.74804       -1.06087       -0.05732
H          2.63193        0.41515       -1.01819
H          3.19926        0.45807        0.68733
H          0.58795       -1.87490        0.05110
H         -1.74118       -1.71382        0.82020
H         -2.63813        0.44742        1.63665
H         -1.23252        2.44238        1.64675
H          3.23688        5.42773       -1.44278
H          4.53360        5.09349       -0.27553
H          4.09991        3.88190       -1.48884
H          2.10195        6.17432        2.80434
H          3.42053        6.30133        1.67055
H          1.96199        8.16072        1.27359
H          1.85932        7.09632       -0.11705
H         -0.34523        7.89814        0.39776
H         -0.32502        6.17490        0.75301
H         -1.39409        7.47126        2.44015
H         -0.10845        6.68650        3.05360
H          1.04765        4.37200        3.80999
H         -0.46965        4.15393        2.93378
H          0.45992        2.74762        3.51991

--Link1--
%chk=JID_8674.chk
%mem=8GB
%nprocshared=4
# B3LYP/6-311++G(d,p) empiricaldispersion=gd3bj scf=xqc pop=npa geom=check

CID_79019739_JID_8674_Energie_neutraal

0 1

--Link1--
%chk=JID_8674.chk
%mem=8GB
%nprocshared=4
# B3LYP/6-311++G(d,p) empiricaldispersion=gd3bj scf=xqc pop=npa geom=check

CID_79019739_JID_8674_Energie_kation

1 2

--Link1--
%chk=JID_8674.chk
%mem=8GB
%nprocshared=4
# B3LYP/6-311++G(d,p) empiricaldispersion=gd3bj scf=xqc pop=npa geom=check

CID_79019739_JID_8674_Energie_anion

-1 2
