%chk=JID_4079.chk
%mem=8GB
%nprocshared=4
# opt freq B3LYP/6-31G(d) empiricaldispersion=gd3bj scf=xqc

CID_142201544_JID_4079_neutraal

0 1
C          0.94466        0.04791       -0.06814
C          0.29743        0.24951        1.30430
C         -1.19886        0.60898        1.24950
C         -1.56593        1.84277        0.44376
C         -1.04668        3.10076        1.09568
O         -1.81840        3.88461        1.65087
C          0.45724        3.33000        1.02459
C          1.18833        2.56440        2.12112
C          1.97407        3.25877        3.06620
C          2.68564        2.59437        4.06578
C          2.63344        1.21336        4.14708
C          1.86099        0.50174        3.23372
C          1.12227        1.15123        2.21828
C          0.71880        4.84127        0.93973
H          1.01626        0.96750       -0.65169
H          0.37119       -0.67489       -0.65870
H          1.96207       -0.34525        0.03976
H          0.30373       -0.75035        1.76431
H         -1.58011        0.71746        2.27384
H         -1.73618       -0.24227        0.81078
H         -1.20479        1.79241       -0.58798
H         -2.65809        1.92405        0.38463
H          0.80778        2.94401        0.06166
H          2.05027        4.34330        3.04936
H          3.27954        3.16123        4.77790
H          3.18622        0.68883        4.92139
H          1.83407       -0.58306        3.32557
H          1.78285        5.05105        0.78522
H          0.17102        5.27841        0.09658
H          0.39005        5.36740        1.84312

--Link1--
%chk=JID_4079.chk
%mem=8GB
%nprocshared=4
# B3LYP/6-311++G(d,p) empiricaldispersion=gd3bj scf=xqc pop=npa geom=check

CID_142201544_JID_4079_Energie_neutraal

0 1

--Link1--
%chk=JID_4079.chk
%mem=8GB
%nprocshared=4
# B3LYP/6-311++G(d,p) empiricaldispersion=gd3bj scf=xqc pop=npa geom=check

CID_142201544_JID_4079_Energie_kation

1 2

--Link1--
%chk=JID_4079.chk
%mem=8GB
%nprocshared=4
# B3LYP/6-311++G(d,p) empiricaldispersion=gd3bj scf=xqc pop=npa geom=check

CID_142201544_JID_4079_Energie_anion

-1 2
