%chk=JID_10218.chk
%mem=8GB
%nprocshared=4
# opt freq B3LYP/6-31G(d) empiricaldispersion=gd3bj scf=xqc

CID_81243984_JID_10218_neutraal

0 1
C          0.92154        0.06167       -0.00633
C          0.33793       -0.77267        1.12615
C          0.96367       -0.45391        2.50176
C          0.58690        0.93805        2.98634
C          1.51822        1.98690        2.90784
C          1.17720        3.27655        3.32142
C         -0.09761        3.53609        3.81963
C         -1.03274        2.50749        3.90535
C         -0.69410        1.21845        3.48977
N          0.50446       -1.45976        3.47721
C          1.46893       -2.16431        4.22383
C          1.36062       -3.54352        4.48092
C          2.33807       -4.14620        5.26809
N          3.38993       -3.49476        5.81931
C          3.46936       -2.16588        5.59818
C          2.53114       -1.47721        4.83174
C          4.59628       -1.42573        6.25393
C          0.29806       -4.43925        3.96999
O          0.15546       -5.61068        4.27211
O         -0.53433       -3.86444        3.07814
H          0.68119        1.12247        0.11040
H          0.50816       -0.26752       -0.96518
H          2.00985       -0.04513       -0.05384
H         -0.75090       -0.63896        1.15107
H          0.51412       -1.82999        0.88839
H          2.05373       -0.51478        2.38237
H          2.51704        1.80766        2.51638
H          1.90611        4.07992        3.25330
H         -0.36248        4.53933        4.14274
H         -2.02638        2.70615        4.29827
H         -1.43356        0.42434        3.56955
H         -0.16487       -2.11694        3.06243
H          2.30802       -5.21121        5.48909
H          2.61934       -0.39970        4.73197
H          4.21826       -0.83757        7.09553
H          5.35133       -2.12354        6.63016
H          5.08431       -0.75695        5.53784
H         -1.15775       -4.59035        2.85573

--Link1--
%chk=JID_10218.chk
%mem=8GB
%nprocshared=4
# B3LYP/6-311++G(d,p) empiricaldispersion=gd3bj scf=xqc pop=npa geom=check

CID_81243984_JID_10218_Energie_neutraal

0 1

--Link1--
%chk=JID_10218.chk
%mem=8GB
%nprocshared=4
# B3LYP/6-311++G(d,p) empiricaldispersion=gd3bj scf=xqc pop=npa geom=check

CID_81243984_JID_10218_Energie_kation

1 2

--Link1--
%chk=JID_10218.chk
%mem=8GB
%nprocshared=4
# B3LYP/6-311++G(d,p) empiricaldispersion=gd3bj scf=xqc pop=npa geom=check

CID_81243984_JID_10218_Energie_anion

-1 2
