%chk=JID_5246.chk
%mem=8GB
%nprocshared=4
# opt freq B3LYP/6-31G(d) empiricaldispersion=gd3bj scf=xqc

CID_142638435_JID_5246_neutraal

0 1
C          0.93322        0.05661        0.04834
C          0.55861       -0.66849        1.33304
C          0.61236        0.23230        2.56973
C         -0.47111        1.30791        2.62099
O         -1.75129        0.71256        2.88297
C         -2.62666        0.64421        1.84661
O         -2.38979        1.02460        0.70715
N         -3.82206        0.09397        2.22915
C         -4.16198       -0.33955        3.57119
C         -5.48495       -1.07417        3.40334
C         -6.12617       -0.35822        2.20779
C         -4.92626       -0.07787        1.30794
C         -7.21213       -1.16078        1.50594
O         -8.36671       -1.26639        2.34810
N         -8.38518       -2.58145        2.97622
H          0.21977        0.84862       -0.19366
H          0.94514       -0.64762       -0.78976
H          1.92941        0.50343        0.12744
H         -0.43290       -1.12159        1.22825
H          1.26519       -1.49487        1.47751
H          0.51242       -0.40799        3.45503
H          1.59736        0.71054        2.62459
H         -0.26628        1.97062        3.46924
H         -0.47203        1.94109        1.72796
H         -4.27510        0.55354        4.19551
H         -3.37569       -0.97317        3.99181
H         -5.29604       -2.12807        3.16454
H         -6.09770       -1.03182        4.30849
H         -6.54520        0.59109        2.56920
H         -4.68597       -0.92547        0.65582
H         -5.06042        0.81525        0.68959
H         -7.53168       -0.63053        0.60178
H         -6.85316       -2.14776        1.18592
H         -8.51024       -2.32900        3.95814
H         -9.29224       -2.93518        2.66597

--Link1--
%chk=JID_5246.chk
%mem=8GB
%nprocshared=4
# B3LYP/6-311++G(d,p) empiricaldispersion=gd3bj scf=xqc pop=npa geom=check

CID_142638435_JID_5246_Energie_neutraal

0 1

--Link1--
%chk=JID_5246.chk
%mem=8GB
%nprocshared=4
# B3LYP/6-311++G(d,p) empiricaldispersion=gd3bj scf=xqc pop=npa geom=check

CID_142638435_JID_5246_Energie_kation

1 2

--Link1--
%chk=JID_5246.chk
%mem=8GB
%nprocshared=4
# B3LYP/6-311++G(d,p) empiricaldispersion=gd3bj scf=xqc pop=npa geom=check

CID_142638435_JID_5246_Energie_anion

-1 2
