%chk=JID_7394.chk
%mem=8GB
%nprocshared=4
# opt freq B3LYP/6-31G(d) empiricaldispersion=gd3bj scf=xqc

CID_83071077_JID_7394_neutraal

0 1
C          1.07110       -0.02819        0.06442
C          0.87668        1.45272        0.38619
C          1.01815        2.39259       -0.83926
C          2.38634        2.24468       -1.52942
C          2.72717        3.62279       -2.09131
C          1.57114        4.52472       -1.70026
N          0.90756        3.85864       -0.58798
C          1.14167        4.39357        0.75347
C          2.53037        4.51402        1.41990
C          3.40307        5.67192        0.98486
N          4.70722        5.14903        1.21038
C          4.66168        3.78237        1.20145
O          5.63069        3.04901        1.12495
O          3.36417        3.36046        1.24365
C         -0.16777        2.03594       -1.79348
O         -1.33090        1.84152       -1.46552
O          0.14749        2.00145       -3.10630
H          0.34458       -0.38257       -0.67250
H          0.93912       -0.62516        0.97293
H          2.07657       -0.22715       -0.31796
H         -0.11450        1.57593        0.84162
H          1.60236        1.70682        1.16298
H          3.16861        1.94834       -0.82251
H          2.39109        1.49161       -2.32493
H          3.66899        3.97890       -1.66138
H          2.85263        3.58922       -3.17864
H          1.87053        5.55590       -1.50029
H          0.86682        4.59092       -2.53916
H          0.69269        5.39633        0.77825
H          0.50775        3.82030        1.44199
H          2.35884        4.59675        2.50264
H          3.24385        6.57827        1.57437
H          3.33437        5.91610       -0.07416
H          5.57941        5.60386        0.97443
H         -0.71533        1.82059       -3.53428

--Link1--
%chk=JID_7394.chk
%mem=8GB
%nprocshared=4
# B3LYP/6-311++G(d,p) empiricaldispersion=gd3bj scf=xqc pop=npa geom=check

CID_83071077_JID_7394_Energie_neutraal

0 1

--Link1--
%chk=JID_7394.chk
%mem=8GB
%nprocshared=4
# B3LYP/6-311++G(d,p) empiricaldispersion=gd3bj scf=xqc pop=npa geom=check

CID_83071077_JID_7394_Energie_kation

1 2

--Link1--
%chk=JID_7394.chk
%mem=8GB
%nprocshared=4
# B3LYP/6-311++G(d,p) empiricaldispersion=gd3bj scf=xqc pop=npa geom=check

CID_83071077_JID_7394_Energie_anion

-1 2
