%chk=JID_10628.chk
%mem=8GB
%nprocshared=4
# opt freq B3LYP/6-31G(d) empiricaldispersion=gd3bj scf=xqc

CID_63748670_JID_10628_neutraal

0 1
C          0.94947       -0.06985       -0.05067
C          0.39296        1.24460       -0.57918
C          0.96425        1.63714       -1.94437
N          0.54131        0.70854       -2.98691
C          1.04874        1.04264       -4.31208
C          2.56846        0.92127       -4.50080
C          3.17779       -0.42781       -4.10823
C          2.55169       -1.57926       -4.79694
N          2.08950       -2.69947       -4.28882
N          1.52707       -3.39657       -5.33969
C          1.69123       -2.65672       -6.41953
O          2.36805       -1.48933       -6.14980
C          1.22623       -2.84241       -7.79085
N          0.27699       -3.79802       -7.96643
C         -0.23096       -3.96312       -9.21176
C          0.16836       -3.22073      -10.31124
C          1.15574       -2.25527      -10.12275
C          1.69128       -2.06043       -8.84763
C         -0.42574       -3.43808      -11.59144
N         -0.90817       -3.60647      -12.63285
H          0.62383       -0.92047       -0.65660
H          0.59818       -0.24054        0.97215
H          2.04390       -0.05536       -0.03366
H         -0.70116        1.18613       -0.62760
H          0.63424        2.03823        0.13829
H          0.60925        2.64520       -2.18882
H          2.05628        1.67754       -1.86944
H          0.76359       -0.25540       -2.74114
H          0.54410        0.38942       -5.03363
H          0.73655        2.06000       -4.57877
H          2.79287        1.12378       -5.55635
H          3.07488        1.71072       -3.93241
H          4.24860       -0.41682       -4.34289
H          3.10089       -0.56947       -3.02388
H         -0.99706       -4.73193       -9.28932
H          1.50636       -1.64738      -10.95437
H          2.45382       -1.30298       -8.69125

--Link1--
%chk=JID_10628.chk
%mem=8GB
%nprocshared=4
# B3LYP/6-311++G(d,p) empiricaldispersion=gd3bj scf=xqc pop=npa geom=check

CID_63748670_JID_10628_Energie_neutraal

0 1

--Link1--
%chk=JID_10628.chk
%mem=8GB
%nprocshared=4
# B3LYP/6-311++G(d,p) empiricaldispersion=gd3bj scf=xqc pop=npa geom=check

CID_63748670_JID_10628_Energie_kation

1 2

--Link1--
%chk=JID_10628.chk
%mem=8GB
%nprocshared=4
# B3LYP/6-311++G(d,p) empiricaldispersion=gd3bj scf=xqc pop=npa geom=check

CID_63748670_JID_10628_Energie_anion

-1 2
