%chk=JID_6849.chk
%mem=8GB
%nprocshared=4
# opt freq B3LYP/6-31G(d) empiricaldispersion=gd3bj scf=xqc

CID_81212269_JID_6849_neutraal

0 1
C          0.96073        0.03281        0.08591
C          0.53689        0.50334       -1.31216
C          0.52562        2.04045       -1.39506
O          1.85274        2.57823       -1.33596
C          2.63153        2.12324       -2.46414
C          2.73669        0.58863       -2.45539
N          1.42316       -0.06328       -2.35318
C          1.37581       -1.41403       -2.71598
O          2.40472       -2.04627       -2.95260
C          0.09084       -2.05698       -2.82716
C         -1.17505       -1.60959       -3.15479
C         -1.99065       -2.75545       -3.13210
N         -1.30292       -3.85878       -2.83694
N         -0.03972       -3.41652       -2.70876
C          4.01237        2.80129       -2.37845
N          4.89147        2.52459       -3.51436
H          0.95153       -1.06035        0.15089
H          0.27350        0.41904        0.84612
H          1.96960        0.37068        0.34396
H         -0.48629        0.15737       -1.46373
H          0.04813        2.37508       -2.32425
H         -0.04487        2.46656       -0.56309
H          2.12591        2.45718       -3.38024
H          3.33124        0.24847       -1.59851
H          3.23774        0.23847       -3.36510
H         -1.47062       -0.59896       -3.39686
H         -3.05286       -2.83377       -3.32676
H          0.70268       -4.08704       -2.53324
H          3.86274        3.88576       -2.31082
H          4.51432        2.51309       -1.44681
H          5.73051        3.09982       -3.43121
H          5.21905        1.55923       -3.47944

--Link1--
%chk=JID_6849.chk
%mem=8GB
%nprocshared=4
# B3LYP/6-311++G(d,p) empiricaldispersion=gd3bj scf=xqc pop=npa geom=check

CID_81212269_JID_6849_Energie_neutraal

0 1

--Link1--
%chk=JID_6849.chk
%mem=8GB
%nprocshared=4
# B3LYP/6-311++G(d,p) empiricaldispersion=gd3bj scf=xqc pop=npa geom=check

CID_81212269_JID_6849_Energie_kation

1 2

--Link1--
%chk=JID_6849.chk
%mem=8GB
%nprocshared=4
# B3LYP/6-311++G(d,p) empiricaldispersion=gd3bj scf=xqc pop=npa geom=check

CID_81212269_JID_6849_Energie_anion

-1 2
