%chk=JID_7054.chk
%mem=8GB
%nprocshared=4
# opt freq B3LYP/6-31G(d) empiricaldispersion=gd3bj scf=xqc

CID_80630480_JID_7054_neutraal

0 1
C          1.02496        0.01582        0.09553
C          0.74487        0.87320       -1.13195
C          1.17770        0.24270       -2.46149
C          0.41191       -1.06318       -2.78648
N          0.88969       -1.58344       -4.08994
C          2.34827       -1.83389       -4.02827
C          3.06469       -0.52095       -3.67386
O          2.60179        0.01283       -2.41964
C          0.16756       -2.74714       -4.43826
N          0.65193       -3.95480       -4.07350
C         -0.06576       -5.05724       -4.38967
C         -1.28250       -5.03604       -5.05362
C         -1.76703       -3.78723       -5.43895
C         -1.03858       -2.62417       -5.14765
C         -1.57459       -1.29081       -5.58333
C         -2.02467       -6.30384       -5.35282
N         -1.36225       -7.07703       -6.39419
H          0.43210       -0.90322        0.08635
H          0.76150        0.56800        1.00363
H          2.08322       -0.25403        0.16312
H         -0.32380        1.11432       -1.16783
H          1.28590        1.81914       -1.00439
H          0.98462        0.97708       -3.25559
H          0.59355       -1.81417       -2.00687
H         -0.66278       -0.85014       -2.81632
H          2.58732       -2.57715       -3.25601
H          2.71592       -2.19487       -4.99610
H          4.14068       -0.69766       -3.57951
H          2.91578        0.23366       -4.45538
H          0.38536       -5.99720       -4.08147
H         -2.70987       -3.71323       -5.97553
H         -2.08720       -0.79775       -4.75209
H         -0.77293       -0.64259       -5.95176
H         -2.28965       -1.40423       -6.40558
H         -2.10047       -6.90488       -4.43935
H         -3.05107       -6.07883       -5.66522
H         -1.94088       -7.87872       -6.63775
H         -1.29020       -6.50872       -7.23760

--Link1--
%chk=JID_7054.chk
%mem=8GB
%nprocshared=4
# B3LYP/6-311++G(d,p) empiricaldispersion=gd3bj scf=xqc pop=npa geom=check

CID_80630480_JID_7054_Energie_neutraal

0 1

--Link1--
%chk=JID_7054.chk
%mem=8GB
%nprocshared=4
# B3LYP/6-311++G(d,p) empiricaldispersion=gd3bj scf=xqc pop=npa geom=check

CID_80630480_JID_7054_Energie_kation

1 2

--Link1--
%chk=JID_7054.chk
%mem=8GB
%nprocshared=4
# B3LYP/6-311++G(d,p) empiricaldispersion=gd3bj scf=xqc pop=npa geom=check

CID_80630480_JID_7054_Energie_anion

-1 2
