%chk=JID_10558.chk
%mem=8GB
%nprocshared=4
# opt freq B3LYP/6-31G(d) empiricaldispersion=gd3bj scf=xqc

CID_61907286_JID_10558_neutraal

0 1
C          0.91377        0.01125        0.04937
C          0.07734       -0.29090        1.26909
C          0.50906        0.56960        2.44440
N          0.40853        1.98908        2.09829
C          0.91375        2.90360        3.13421
C          2.45685        2.89061        3.16814
C          0.45707        4.34235        2.77732
C         -1.05102        4.58064        2.58079
C         -1.89613        4.83078        3.83631
C         -1.44404        5.91492        4.83343
N         -1.82049        7.30365        4.51594
C         -1.64202        8.16160        5.68716
C         -1.19820        7.88060        3.31415
C          0.33493        8.05164        3.29141
C          0.83335        9.41656        3.74400
C          2.17030        9.49600        3.04864
C          1.87498        8.83933        1.71786
O          0.83287        7.88045        1.94542
C          0.40708        2.50159        4.50973
N         -0.01325        2.16809        5.65084
H          0.64533        0.96521       -0.41481
H          0.74598       -0.76003       -0.71061
H          1.98439        0.01826        0.27880
H         -0.98364       -0.13532        1.04136
H          0.19627       -1.34673        1.53978
H         -0.14344        0.32172        3.28814
H          1.53436        0.29851        2.71916
H          0.89286        2.18922        1.22698
H          2.88120        3.12616        2.18513
H          2.83871        3.63458        3.87838
H          2.85840        1.92143        3.48394
H          0.85960        5.04529        3.51187
H          0.93851        4.61692        1.82657
H         -1.16487        5.42492        1.89688
H         -1.49631        3.73808        2.03798
H         -2.92433        5.05140        3.51953
H         -1.97178        3.88525        4.38579
H         -1.95509        5.65702        5.77222
H         -0.37792        5.82685        5.06203
H         -0.60834        8.16161        6.04824
H         -1.93598        9.19383        5.46670
H         -2.28658        7.82723        6.50797
H         -1.52200        7.31130        2.44051
H         -1.66248        8.85995        3.13187
H          0.82535        7.27524        3.88601
H          0.18298       10.21769        3.37331
H          0.91249        9.51153        4.82954
H          2.55340       10.51446        2.94509
H          2.91153        8.90578        3.60053
H          1.50361        9.56707        0.98890
H          2.75002        8.33768        1.29484

--Link1--
%chk=JID_10558.chk
%mem=8GB
%nprocshared=4
# B3LYP/6-311++G(d,p) empiricaldispersion=gd3bj scf=xqc pop=npa geom=check

CID_61907286_JID_10558_Energie_neutraal

0 1

--Link1--
%chk=JID_10558.chk
%mem=8GB
%nprocshared=4
# B3LYP/6-311++G(d,p) empiricaldispersion=gd3bj scf=xqc pop=npa geom=check

CID_61907286_JID_10558_Energie_kation

1 2

--Link1--
%chk=JID_10558.chk
%mem=8GB
%nprocshared=4
# B3LYP/6-311++G(d,p) empiricaldispersion=gd3bj scf=xqc pop=npa geom=check

CID_61907286_JID_10558_Energie_anion

-1 2
