%chk=JID_5297.chk
%mem=8GB
%nprocshared=4
# opt freq B3LYP/6-31G(d) empiricaldispersion=gd3bj scf=xqc

CID_65199198_JID_5297_neutraal

0 1
C         -2.31600        0.00600       -0.01000
C         -0.85401       -0.14517        0.22382
N         -0.15842       -1.21814       -0.08434
C          1.17219       -1.03703        0.26487
C          1.46408        0.18579        0.83542
S          0.04135        1.13729        0.93779
C          2.21679       -2.08890        0.04436
N          1.99424       -3.26642       -0.50448
C          3.23275       -3.85619       -0.48698
N          4.19563       -3.10724        0.06316
O          3.53227       -1.93043        0.40489
C          3.44173       -5.24053       -0.99660
C          4.77584       -5.47362       -1.73381
C          5.95353       -5.67724       -0.77555
N          4.67391       -6.67244       -2.58717
H         -2.83497        0.28472        0.91259
H         -2.50810        0.77199       -0.76788
H         -2.74540       -0.93630       -0.36519
H          2.41452        0.56118        1.18742
H          3.33557       -5.94820       -0.16472
H          2.61447       -5.45400       -1.68794
H          4.99032       -4.62070       -2.38881
H          5.77419       -6.51585       -0.09303
H          6.87589       -5.88801       -1.32923
H          6.14407       -4.78791       -0.16950
H          5.55092       -6.80452       -3.09167
H          4.55777       -7.50380       -2.00758

--Link1--
%chk=JID_5297.chk
%mem=8GB
%nprocshared=4
# B3LYP/6-311++G(d,p) empiricaldispersion=gd3bj scf=xqc pop=npa geom=check

CID_65199198_JID_5297_Energie_neutraal

0 1

--Link1--
%chk=JID_5297.chk
%mem=8GB
%nprocshared=4
# B3LYP/6-311++G(d,p) empiricaldispersion=gd3bj scf=xqc pop=npa geom=check

CID_65199198_JID_5297_Energie_kation

1 2

--Link1--
%chk=JID_5297.chk
%mem=8GB
%nprocshared=4
# B3LYP/6-311++G(d,p) empiricaldispersion=gd3bj scf=xqc pop=npa geom=check

CID_65199198_JID_5297_Energie_anion

-1 2
