%chk=JID_7208.chk
%mem=8GB
%nprocshared=4
# opt freq B3LYP/6-31G(d) empiricaldispersion=gd3bj scf=xqc

CID_65675403_JID_7208_neutraal

0 1
C          1.06525        0.00279       -0.07573
C          0.34843        1.19775        0.53511
N          0.77044        2.40794       -0.15959
C          0.21437        3.60800        0.33290
N         -0.73363        3.54978        1.29895
C         -1.23117        4.72876        1.73592
C         -0.80411        5.94549        1.24301
N          0.13249        6.04282        0.27738
C          0.62043        4.86085       -0.19556
C          1.59737        4.99318       -1.28147
C          2.77541        5.71778       -1.11335
N          3.75528        5.82987       -2.04574
C          3.52568        5.21866       -3.22645
C          2.37052        4.52486       -3.52927
C          1.40371        4.39572       -2.53527
O          4.46829        5.34624       -4.22121
C          5.72456        4.85266       -3.76731
H          0.84321       -0.08405       -1.14470
H          0.75080       -0.92261        0.41657
H          2.15089        0.09704        0.03417
H         -0.73328        1.05166        0.43156
H          0.59672        1.25277        1.60187
H          1.78360        2.50214       -0.18146
H         -1.99181        4.66478        2.50583
H         -1.21052        6.88128        1.60982
H          2.97881        6.23977       -0.18000
H          2.23295        4.07883       -4.50757
H          0.49784        3.83006       -2.74059
H          6.07654        5.35652       -2.86104
H          5.66805        3.76994       -3.60574
H          6.45997        5.03483       -4.55678

--Link1--
%chk=JID_7208.chk
%mem=8GB
%nprocshared=4
# B3LYP/6-311++G(d,p) empiricaldispersion=gd3bj scf=xqc pop=npa geom=check

CID_65675403_JID_7208_Energie_neutraal

0 1

--Link1--
%chk=JID_7208.chk
%mem=8GB
%nprocshared=4
# B3LYP/6-311++G(d,p) empiricaldispersion=gd3bj scf=xqc pop=npa geom=check

CID_65675403_JID_7208_Energie_kation

1 2

--Link1--
%chk=JID_7208.chk
%mem=8GB
%nprocshared=4
# B3LYP/6-311++G(d,p) empiricaldispersion=gd3bj scf=xqc pop=npa geom=check

CID_65675403_JID_7208_Energie_anion

-1 2
