%chk=JID_10877.chk
%mem=8GB
%nprocshared=4
# opt freq B3LYP/6-31G(d) empiricaldispersion=gd3bj scf=xqc

CID_76876554_JID_10877_neutraal

0 1
C          0.91379        0.04868       -0.01408
S          0.08464       -1.30919       -0.82771
O         -0.21532       -2.32807        0.15295
O         -1.02685       -0.68750       -1.53231
N          1.08220       -1.82406       -2.15607
C          2.76824       -2.91991       -2.90231
C          4.07527       -3.70912       -2.15906
N          3.97004       -5.17203       -1.98507
C          4.01768       -5.54856       -0.57300
C          2.65851       -5.50087        0.13612
C          2.82885       -5.81729        1.61763
N          3.20246       -4.53586        2.22726
N          2.67439       -3.48017        1.37056
C          1.99280       -4.13690        0.24120
C          1.93986       -3.29912       -1.01171
C          2.86316       -1.73236       -1.16408
C          2.76309       -0.76807       -2.68378
C          1.78468       -1.36977       -4.07914
C          0.83975       -2.89979       -3.92391
C          0.90914       -3.85636       -2.39121
H          0.16115        0.56735        0.58700
H          1.30356        0.74354       -0.75860
H          1.68707       -0.32225        0.65738
H          0.45276       -1.39687       -2.84867
H          2.54514       -3.75850       -3.61389
H          3.42660       -2.36553       -3.62354
H          4.86507       -3.62828       -2.92350
H          4.55258       -3.20523       -1.31032
H          3.11871       -5.52213       -2.41934
H          4.36481       -6.58956       -0.54225
H          4.78998       -4.98020       -0.03996
H          1.98221       -6.22629       -0.33397
H          1.87669       -6.15920        2.04275
H          3.58232       -6.58626        1.81350
H          2.85914       -4.48525        3.18997
H          1.98258       -2.89051        1.84374
H          0.95636       -4.32396        0.55048
H          3.48886       -1.39251       -0.34017
H          3.31780        0.16228       -2.77384
H          1.73161       -0.78751       -4.99600
H          0.21300       -3.24033       -4.74441
H          0.31747       -4.76213       -2.29122

--Link1--
%chk=JID_10877.chk
%mem=8GB
%nprocshared=4
# B3LYP/6-311++G(d,p) empiricaldispersion=gd3bj scf=xqc pop=npa geom=check

CID_76876554_JID_10877_Energie_neutraal

0 1

--Link1--
%chk=JID_10877.chk
%mem=8GB
%nprocshared=4
# B3LYP/6-311++G(d,p) empiricaldispersion=gd3bj scf=xqc pop=npa geom=check

CID_76876554_JID_10877_Energie_kation

1 2

--Link1--
%chk=JID_10877.chk
%mem=8GB
%nprocshared=4
# B3LYP/6-311++G(d,p) empiricaldispersion=gd3bj scf=xqc pop=npa geom=check

CID_76876554_JID_10877_Energie_anion

-1 2
