%chk=JID_2756.chk
%mem=8GB
%nprocshared=4
# opt freq B3LYP/6-31G(d) empiricaldispersion=gd3bj scf=xqc

CID_147372278_JID_2756_neutraal

0 1
C         -1.35000        0.00100        0.79800
C         -1.12289       -1.32073        0.06474
C          0.32117       -1.59543       -0.34359
O          1.20523       -1.37958        0.75130
C          2.09771       -0.26894        0.62752
C          1.39771        1.11719        0.60836
O          0.42519        1.22898       -0.44013
C         -0.92484        1.24262        0.01529
C          3.02792       -0.35694        1.82170
C          4.29620       -0.54311        1.42165
C          4.33441       -0.60559       -0.01597
C          3.09177       -0.46508       -0.50039
H         -0.82839       -0.03470        1.76116
H         -2.41662        0.09017        1.03794
H         -1.44986       -2.12428        0.73703
H         -1.76482       -1.37359       -0.82230
H          0.59267       -1.02989       -1.24008
H          0.40575       -2.65292       -0.61910
H          2.13936        1.90579        0.42896
H          0.94187        1.34045        1.58128
H         -1.55680        1.34068       -0.87419
H         -1.08659        2.14334        0.61907
H          2.69539       -0.30247        2.84696
H          5.15851       -0.65824        2.06035
H          5.23304       -0.75542       -0.59480
H          2.82857       -0.46873       -1.54676

--Link1--
%chk=JID_2756.chk
%mem=8GB
%nprocshared=4
# B3LYP/6-311++G(d,p) empiricaldispersion=gd3bj scf=xqc pop=npa geom=check

CID_147372278_JID_2756_Energie_neutraal

0 1

--Link1--
%chk=JID_2756.chk
%mem=8GB
%nprocshared=4
# B3LYP/6-311++G(d,p) empiricaldispersion=gd3bj scf=xqc pop=npa geom=check

CID_147372278_JID_2756_Energie_kation

1 2

--Link1--
%chk=JID_2756.chk
%mem=8GB
%nprocshared=4
# B3LYP/6-311++G(d,p) empiricaldispersion=gd3bj scf=xqc pop=npa geom=check

CID_147372278_JID_2756_Energie_anion

-1 2
