%chk=JID_5149.chk
%mem=8GB
%nprocshared=4
# opt freq B3LYP/6-31G(d) empiricaldispersion=gd3bj scf=xqc

CID_65248584_JID_5149_neutraal

0 1
C          0.94882       -0.02647       -0.08173
C          1.69442        1.28690       -0.29840
C          1.60751        1.89640       -1.74028
C          0.12024        2.26867       -1.98134
C          2.41966        3.21587       -1.71963
N          2.07043        0.93806       -2.80680
C          3.41039        0.38058       -2.52855
C          2.07089        1.52284       -4.17009
C          2.15446        0.53095       -5.35516
C          0.93601       -0.39438       -5.67465
C         -0.41071        0.33306       -5.48794
C          1.03619       -0.74492       -7.18318
C          0.94962       -1.65685       -4.77512
S          1.16216       -3.23636       -5.28275
N          0.75489       -1.45719       -3.44173
H         -0.11925        0.07202       -0.29350
H          1.04710       -0.33628        0.96424
H          1.35391       -0.83238       -0.69781
H          1.29191        2.01447        0.42029
H          2.74199        1.15152       -0.00219
H         -0.01285        2.93699       -2.83791
H         -0.29832        2.79567       -1.11532
H         -0.49676        1.38017       -2.15143
H          3.48108        3.03950       -1.51795
H          2.33931        3.76589       -2.66299
H          2.05099        3.88588       -0.93334
H          3.68203       -0.38049       -3.26623
H          4.19301        1.14602       -2.53407
H          3.44699       -0.14700       -1.57224
H          1.18215        2.13527       -4.33812
H          2.91905        2.21458       -4.26638
H          2.33068        1.16625       -6.23588
H          3.05996       -0.08184       -5.27419
H         -0.45192        1.25078       -6.08530
H         -1.24467       -0.30683       -5.80050
H         -0.60154        0.60415       -4.44608
H          1.98928       -1.23063       -7.42248
H          0.22512       -1.41017       -7.50116
H          0.96795        0.15714       -7.80333
H          0.95850       -0.54035       -3.03624
H          0.85445       -2.24859       -2.81870

--Link1--
%chk=JID_5149.chk
%mem=8GB
%nprocshared=4
# B3LYP/6-311++G(d,p) empiricaldispersion=gd3bj scf=xqc pop=npa geom=check

CID_65248584_JID_5149_Energie_neutraal

0 1

--Link1--
%chk=JID_5149.chk
%mem=8GB
%nprocshared=4
# B3LYP/6-311++G(d,p) empiricaldispersion=gd3bj scf=xqc pop=npa geom=check

CID_65248584_JID_5149_Energie_kation

1 2

--Link1--
%chk=JID_5149.chk
%mem=8GB
%nprocshared=4
# B3LYP/6-311++G(d,p) empiricaldispersion=gd3bj scf=xqc pop=npa geom=check

CID_65248584_JID_5149_Energie_anion

-1 2
