%chk=JID_4506.chk
%mem=8GB
%nprocshared=4
# opt freq B3LYP/6-31G(d) empiricaldispersion=gd3bj scf=xqc

CID_63007868_JID_4506_neutraal

0 1
C          0.94634       -0.06382       -0.05520
N          0.85738        0.30102        1.35406
C          0.43749        1.67795        1.65104
C         -1.05121        1.94047        1.39220
C         -1.97639        1.24195        2.38644
O         -1.72518        1.63135        3.73561
C         -2.27665        2.89658        4.07542
C          1.29323       -0.62601        2.30370
O          1.67075       -1.75464        1.97128
C          1.31877       -0.20830        3.78785
C          1.52084       -1.41567        4.70643
S          2.14037       -0.69356        6.24957
C          2.50405        0.89954        5.48664
N          2.46438        0.71570        4.03830
H         -0.02316        0.08839       -0.53532
H          1.23793       -1.10685       -0.20090
H          1.69467        0.57544       -0.53323
H          0.68334        1.96546        2.67351
H          1.03260        2.33384        1.00367
H         -1.21216        3.02296        1.44661
H         -1.32726        1.63693        0.37711
H         -3.02668        1.42837        2.13313
H         -1.82542        0.15860        2.33147
H         -1.79435        3.69836        3.51039
H         -3.35681        2.90712        3.90208
H         -2.09461        3.07272        5.13924
H          0.36998        0.27585        4.03631
H          0.58545       -1.95587        4.87912
H          2.27074       -2.12079        4.33431
H          3.48419        1.26428        5.80675
H          1.75159        1.63153        5.79798
H          3.31483        0.21446        3.77421

--Link1--
%chk=JID_4506.chk
%mem=8GB
%nprocshared=4
# B3LYP/6-311++G(d,p) empiricaldispersion=gd3bj scf=xqc pop=npa geom=check

CID_63007868_JID_4506_Energie_neutraal

0 1

--Link1--
%chk=JID_4506.chk
%mem=8GB
%nprocshared=4
# B3LYP/6-311++G(d,p) empiricaldispersion=gd3bj scf=xqc pop=npa geom=check

CID_63007868_JID_4506_Energie_kation

1 2

--Link1--
%chk=JID_4506.chk
%mem=8GB
%nprocshared=4
# B3LYP/6-311++G(d,p) empiricaldispersion=gd3bj scf=xqc pop=npa geom=check

CID_63007868_JID_4506_Energie_anion

-1 2
