%chk=JID_7251.chk
%mem=8GB
%nprocshared=4
# opt freq B3LYP/6-31G(d) empiricaldispersion=gd3bj scf=xqc

CID_113515279_JID_7251_neutraal

0 1
C         -2.37600       -0.23800        0.55700
C         -1.29172       -0.16982       -0.53436
C         -0.18519       -1.22823       -0.23109
N          1.21432       -0.90600       -0.51295
C          1.73313        0.25330        0.20708
C          0.72002        1.32287        0.64627
S         -0.63997        1.56014       -0.53933
C          1.71324       -1.14670       -1.87339
C          1.61448       -0.05709       -2.98943
C          2.59622        1.06897       -2.88739
C          2.32584        2.42328       -2.95481
N          3.51604        3.06729       -2.80080
N          4.55879        2.23134       -2.65401
C          4.00117        1.02004       -2.71138
C          3.73459        4.49262       -2.77462
N          1.81358       -0.66524       -4.31721
C         -1.96631       -0.44238       -1.88702
H         -1.97243       -0.01878        1.55231
H         -3.19494        0.46526        0.36354
H         -2.81607       -1.24153        0.60142
H         -0.22183       -1.46738        0.84181
H         -0.44962       -2.18241       -0.70672
H          2.21331       -0.12308        1.12037
H          2.55350        0.73395       -0.32852
H          0.28219        1.05324        1.61358
H          1.23220        2.28079        0.78378
H          2.76620       -1.44503       -1.77443
H          1.21527       -2.05355       -2.24463
H          0.60825        0.36184       -2.99297
H          1.39530        2.96066       -3.08029
H          4.63726        0.14928       -2.61427
H          4.15015        4.75914       -1.79966
H          4.43262        4.74998       -3.57496
H          2.78392        5.00926       -2.92850
H          1.73366        0.07060       -5.01917
H          2.76838       -1.01282       -4.38743
H         -2.73717        0.30333       -2.11555
H         -1.26140       -0.46218       -2.71903
H         -2.46343       -1.42016       -1.87714

--Link1--
%chk=JID_7251.chk
%mem=8GB
%nprocshared=4
# B3LYP/6-311++G(d,p) empiricaldispersion=gd3bj scf=xqc pop=npa geom=check

CID_113515279_JID_7251_Energie_neutraal

0 1

--Link1--
%chk=JID_7251.chk
%mem=8GB
%nprocshared=4
# B3LYP/6-311++G(d,p) empiricaldispersion=gd3bj scf=xqc pop=npa geom=check

CID_113515279_JID_7251_Energie_kation

1 2

--Link1--
%chk=JID_7251.chk
%mem=8GB
%nprocshared=4
# B3LYP/6-311++G(d,p) empiricaldispersion=gd3bj scf=xqc pop=npa geom=check

CID_113515279_JID_7251_Energie_anion

-1 2
