%chk=JID_7337.chk
%mem=8GB
%nprocshared=4
# opt freq B3LYP/6-31G(d) empiricaldispersion=gd3bj scf=xqc

CID_29045340_JID_7337_neutraal

0 1
C         -1.35000        0.00100        0.79800
C         -1.03262       -1.34985        0.17119
C          0.40533       -1.58582       -0.28638
C          1.49422       -1.12019        0.69276
N          2.22710        0.11071        0.31317
C          1.38433        1.32335        0.40715
C          0.26337        1.45246       -0.63642
C         -1.15027        1.20039       -0.11758
C          3.58163        0.24019        1.01944
C          4.34785        1.50588        0.46400
C          4.27833        2.80945        1.27252
C          5.29923        2.86603        2.40718
C          4.91592        2.05549        3.63798
C          4.68179        0.57160        3.37454
C          3.40812        0.29623        2.56788
C          4.53104       -0.98498        0.60295
N          4.40498       -2.25288        1.33693
H         -0.79519        0.13312        1.73235
H         -2.40650       -0.01378        1.09753
H         -1.28232       -2.12140        0.91156
H         -1.70357       -1.52488       -0.67911
H          0.57255       -1.18652       -1.29103
H          0.51360       -2.67190       -0.42116
H          2.18406       -1.96115        0.69973
H          1.10358       -1.05398        1.71421
H          1.99982        2.19801        0.19668
H          0.99908        1.47099        1.42165
H          0.47279        0.85079       -1.52570
H          0.27366        2.48421       -1.01713
H         -1.82901        1.12165       -0.97603
H         -1.47173        2.09279        0.43566
H          5.41290        1.28420        0.31864
H          3.99857        1.70785       -0.55881
H          3.27674        3.01613        1.65989
H          4.51466        3.63053        0.58314
H          5.41080        3.91269        2.71748
H          6.28490        2.54862        2.04602
H          4.02302        2.49360        4.10141
H          5.72121        2.15426        4.37652
H          4.56641        0.08584        4.35228
H          5.56636        0.12142        2.91371
H          2.64914        1.03608        2.84739
H          3.00446       -0.66118        2.91998
H          4.38810       -1.18841       -0.46627
H          5.58335       -0.69691        0.71029
H          5.04559       -2.93350        0.93127
H          4.70182       -2.12097        2.30175

--Link1--
%chk=JID_7337.chk
%mem=8GB
%nprocshared=4
# B3LYP/6-311++G(d,p) empiricaldispersion=gd3bj scf=xqc pop=npa geom=check

CID_29045340_JID_7337_Energie_neutraal

0 1

--Link1--
%chk=JID_7337.chk
%mem=8GB
%nprocshared=4
# B3LYP/6-311++G(d,p) empiricaldispersion=gd3bj scf=xqc pop=npa geom=check

CID_29045340_JID_7337_Energie_kation

1 2

--Link1--
%chk=JID_7337.chk
%mem=8GB
%nprocshared=4
# B3LYP/6-311++G(d,p) empiricaldispersion=gd3bj scf=xqc pop=npa geom=check

CID_29045340_JID_7337_Energie_anion

-1 2
