%chk=JID_3299.chk
%mem=8GB
%nprocshared=4
# opt freq B3LYP/6-31G(d) empiricaldispersion=gd3bj scf=xqc

CID_79675937_JID_3299_neutraal

0 1
C          1.00881        0.06753        0.07323
O          0.28073        0.97133        0.88595
C          0.97490        1.29384        2.09637
C          0.15203        2.31583        2.88409
O         -0.91754        1.72629        3.64640
N         -1.81090        1.07075        2.78806
C         -2.94225        1.60779        2.25210
O         -3.64896        0.89387        1.53648
C         -3.27555        2.99935        2.47587
C         -2.88113        3.93684        3.41649
C         -3.52666        5.16313        3.12055
C         -4.32195        4.94947        2.02022
N         -4.18573        3.63813        1.65659
H          0.43017       -0.12485       -0.83418
H          1.16094       -0.88058        0.59785
H          1.97349        0.49764       -0.21262
H          1.12448        0.38094        2.68330
H          1.94497        1.73147        1.83644
H          0.80249        2.80534        3.61627
H         -0.25481        3.08958        2.22387
H         -1.64960        0.08444        2.63164
H         -2.19746        3.76435        4.23710
H         -3.42437        6.09740        3.65700
H         -4.97880        5.61073        1.47138
H         -4.65667        3.17954        0.88569

--Link1--
%chk=JID_3299.chk
%mem=8GB
%nprocshared=4
# B3LYP/6-311++G(d,p) empiricaldispersion=gd3bj scf=xqc pop=npa geom=check

CID_79675937_JID_3299_Energie_neutraal

0 1

--Link1--
%chk=JID_3299.chk
%mem=8GB
%nprocshared=4
# B3LYP/6-311++G(d,p) empiricaldispersion=gd3bj scf=xqc pop=npa geom=check

CID_79675937_JID_3299_Energie_kation

1 2

--Link1--
%chk=JID_3299.chk
%mem=8GB
%nprocshared=4
# B3LYP/6-311++G(d,p) empiricaldispersion=gd3bj scf=xqc pop=npa geom=check

CID_79675937_JID_3299_Energie_anion

-1 2
