%chk=JID_9991.chk
%mem=8GB
%nprocshared=4
# opt freq B3LYP/6-31G(d) empiricaldispersion=gd3bj scf=xqc

CID_62062002_JID_9991_neutraal

0 1
C          0.91462       -0.05068        0.01189
C          0.44187       -1.46215        0.10794
C          1.10705       -2.44664        0.73328
S          0.27614       -3.96836        0.63040
C         -1.00496       -3.23110       -0.31283
N         -2.01005       -3.88709       -0.78048
C         -2.90359       -3.16232       -1.53813
C         -2.80841       -1.83462       -1.70994
C         -1.64967       -1.10339       -1.15807
O         -1.56998        0.10493       -1.35844
N         -0.74875       -1.88590       -0.47282
C         -4.05112       -3.94342       -2.16900
N         -3.76151       -4.72152       -3.38224
C         -2.83127       -5.83475       -3.18387
C         -1.49628       -5.36718       -3.73097
C         -1.88125       -4.44795       -4.88353
C         -3.27513       -3.92578       -4.51489
C         -0.88579       -3.31148       -5.12812
N          0.43142       -3.81079       -5.50926
H          0.20853        0.63095        0.49654
H          1.04364        0.24770       -1.03335
H          1.88303        0.07909        0.50775
H          2.05358       -2.34027        1.24677
H         -3.51846       -1.25688       -2.28746
H         -4.47332       -4.61515       -1.40919
H         -4.87389       -3.25446       -2.40491
H         -3.18709       -6.68328       -3.78159
H         -2.76406       -6.18898       -2.14989
H         -0.92438       -4.82872       -2.96965
H         -0.88232       -6.20829       -4.06957
H         -1.97037       -5.05452       -5.79578
H         -3.27815       -2.84811       -4.32044
H         -3.95222       -4.07739       -5.36427
H         -1.25884       -2.66346       -5.92893
H         -0.78489       -2.69091       -4.22990
H          1.07000       -3.02513       -5.62851
H          0.81885       -4.37900       -4.75683

--Link1--
%chk=JID_9991.chk
%mem=8GB
%nprocshared=4
# B3LYP/6-311++G(d,p) empiricaldispersion=gd3bj scf=xqc pop=npa geom=check

CID_62062002_JID_9991_Energie_neutraal

0 1

--Link1--
%chk=JID_9991.chk
%mem=8GB
%nprocshared=4
# B3LYP/6-311++G(d,p) empiricaldispersion=gd3bj scf=xqc pop=npa geom=check

CID_62062002_JID_9991_Energie_kation

1 2

--Link1--
%chk=JID_9991.chk
%mem=8GB
%nprocshared=4
# B3LYP/6-311++G(d,p) empiricaldispersion=gd3bj scf=xqc pop=npa geom=check

CID_62062002_JID_9991_Energie_anion

-1 2
