%chk=JID_10687.chk
%mem=8GB
%nprocshared=4
# opt freq B3LYP/6-31G(d) empiricaldispersion=gd3bj scf=xqc

CID_114387209_JID_10687_neutraal

0 1
C          1.08231        0.05667        0.00384
C          0.15430       -0.37543        1.12891
C          0.63548       -1.63773        1.79441
C          1.49195       -1.64091        2.88636
N          1.87685       -2.82110        3.41255
N          1.42593       -3.97959        2.85364
C          0.60435       -3.93864        1.79482
N          0.19631       -2.79265        1.23167
N          0.13625       -5.07967        1.16934
C          0.30978       -6.41023        1.45277
O         -0.12936       -7.19930        0.60125
C          1.00450       -6.89252        2.79864
C          0.54405       -8.33657        3.25841
C         -0.56319       -7.67159        4.09980
C          0.31694       -6.40248        4.13790
C         -0.87982       -8.31519        5.43432
C          2.53784       -6.86446        2.62760
N          3.27732       -7.04303        3.87990
C          2.00976       -0.41018        3.56999
C          1.09409        0.03248        4.70118
H          2.09173        0.26411        0.37374
H          0.70180        0.96599       -0.47201
H          1.16117       -0.72023       -0.76437
H          0.03560        0.43319        1.85717
H         -0.84666       -0.55385        0.71631
H         -0.39216       -4.89059        0.33073
H          0.18514       -9.00611        2.47064
H          1.27942       -8.89228        3.85348
H         -1.48369       -7.51662        3.51911
H          0.97683       -6.34134        5.01001
H         -0.26778       -5.47963        4.09525
H         -1.55779       -7.68193        6.01542
H         -1.36741       -9.28429        5.28801
H          0.02448       -8.47798        6.02989
H          2.83599       -7.65916        1.93277
H          2.86877       -5.92635        2.17246
H          4.27498       -7.08320        3.67210
H          3.15657       -6.20570        4.45278
H          3.00430       -0.62527        3.98042
H          2.15305        0.40622        2.85497
H          0.99050       -0.75362        5.45705
H          1.50183        0.92205        5.19162
H          0.09194        0.27673        4.33393

--Link1--
%chk=JID_10687.chk
%mem=8GB
%nprocshared=4
# B3LYP/6-311++G(d,p) empiricaldispersion=gd3bj scf=xqc pop=npa geom=check

CID_114387209_JID_10687_Energie_neutraal

0 1

--Link1--
%chk=JID_10687.chk
%mem=8GB
%nprocshared=4
# B3LYP/6-311++G(d,p) empiricaldispersion=gd3bj scf=xqc pop=npa geom=check

CID_114387209_JID_10687_Energie_kation

1 2

--Link1--
%chk=JID_10687.chk
%mem=8GB
%nprocshared=4
# B3LYP/6-311++G(d,p) empiricaldispersion=gd3bj scf=xqc pop=npa geom=check

CID_114387209_JID_10687_Energie_anion

-1 2
