%chk=JID_9708.chk
%mem=8GB
%nprocshared=4
# opt freq B3LYP/6-31G(d) empiricaldispersion=gd3bj scf=xqc

CID_146284228_JID_9708_neutraal

0 1
C          0.93798       -0.06150       -0.04870
C          0.82534       -1.27173        0.86492
C          1.10385       -0.95716        2.33652
C          0.18931        0.09298        2.98444
C         -1.31341       -0.22515        2.93235
C         -1.67885       -1.51784        3.65835
S         -2.33206        1.19270        3.51117
C         -1.81844        1.40635        5.18503
C         -0.95635        2.42142        5.40917
C         -0.34669        2.92853        6.70405
C         -1.31698        3.34707        7.84008
C         -2.58053        2.53649        8.12855
C         -2.36846        1.04815        8.39193
O         -1.69077        0.36012        7.34076
N         -2.38103        0.60822        6.16171
C          0.83992        2.07448        7.21437
C          2.02985        2.03834        6.25304
O          2.59668        3.32346        6.12154
O          3.04994        1.19898        6.75303
H          0.16123        0.67782        0.16762
H          0.82275       -0.36744       -1.09347
H          1.91479        0.42087        0.05718
H         -0.16474       -1.72603        0.75119
H          1.54881       -2.02624        0.53266
H          1.04922       -1.89018        2.90994
H          2.14058       -0.60920        2.43119
H          0.50562        0.18579        4.02948
H          0.38321        1.06434        2.51269
H         -1.60873       -0.34393        1.88443
H         -1.29113       -1.53665        4.68171
H         -2.76328       -1.66964        3.69112
H         -1.25478       -2.38365        3.13862
H         -0.61677        2.99497        4.54487
H          0.11284        3.88914        6.42090
H         -1.65885        4.36721        7.61176
H         -0.75187        3.44594        8.77608
H         -3.28861        2.68041        7.30373
H         -3.07244        2.97090        9.00835
H         -1.76491        0.92037        9.29712
H         -3.33016        0.55409        8.57611
H         -2.84211       -0.21122        5.77397
H          1.18936        2.49400        8.16761
H          0.54122        1.04757        7.43832
H          1.73803        1.67419        5.26543
H          3.23292        3.23825        5.39141
H          3.13452        1.41265        7.69695

--Link1--
%chk=JID_9708.chk
%mem=8GB
%nprocshared=4
# B3LYP/6-311++G(d,p) empiricaldispersion=gd3bj scf=xqc pop=npa geom=check

CID_146284228_JID_9708_Energie_neutraal

0 1

--Link1--
%chk=JID_9708.chk
%mem=8GB
%nprocshared=4
# B3LYP/6-311++G(d,p) empiricaldispersion=gd3bj scf=xqc pop=npa geom=check

CID_146284228_JID_9708_Energie_kation

1 2

--Link1--
%chk=JID_9708.chk
%mem=8GB
%nprocshared=4
# B3LYP/6-311++G(d,p) empiricaldispersion=gd3bj scf=xqc pop=npa geom=check

CID_146284228_JID_9708_Energie_anion

-1 2
