%chk=JID_2454.chk
%mem=8GB
%nprocshared=4
# opt freq B3LYP/6-31G(d) empiricaldispersion=gd3bj scf=xqc

CID_60928872_JID_2454_neutraal

0 1
C          1.08091        0.03961        0.04342
C          0.74935       -0.98636        1.12324
C          1.11661       -0.53556        2.55282
C          0.60116        0.81282        3.01087
C          1.35942        1.96882        2.75920
C          0.90319        3.22740        3.15754
C         -0.31977        3.35169        3.81144
C         -1.08002        2.21561        4.08016
C         -0.60944        0.95460        3.70325
O         -1.37510       -0.15490        3.94687
C         -1.40684       -0.45813        5.34110
S         -0.99538       -1.50487        0.94514
H          0.45868        0.93808        0.11571
H          0.93983       -0.38385       -0.95785
H          2.12994        0.34683        0.11557
H          1.33712       -1.88764        0.91087
H          0.82360       -1.30856        3.27565
H          2.21354       -0.50745        2.62416
H          2.31461        1.89737        2.24316
H          1.49972        4.11186        2.94839
H         -0.68313        4.33226        4.10670
H         -2.04316        2.31694        4.57191
H         -1.83150       -1.45999        5.45469
H         -0.40003       -0.46722        5.77432
H         -2.04979        0.24453        5.88047
H         -1.53943       -0.41999        1.51957

--Link1--
%chk=JID_2454.chk
%mem=8GB
%nprocshared=4
# B3LYP/6-311++G(d,p) empiricaldispersion=gd3bj scf=xqc pop=npa geom=check

CID_60928872_JID_2454_Energie_neutraal

0 1

--Link1--
%chk=JID_2454.chk
%mem=8GB
%nprocshared=4
# B3LYP/6-311++G(d,p) empiricaldispersion=gd3bj scf=xqc pop=npa geom=check

CID_60928872_JID_2454_Energie_kation

1 2

--Link1--
%chk=JID_2454.chk
%mem=8GB
%nprocshared=4
# B3LYP/6-311++G(d,p) empiricaldispersion=gd3bj scf=xqc pop=npa geom=check

CID_60928872_JID_2454_Energie_anion

-1 2
