%chk=JID_8899.chk
%mem=8GB
%nprocshared=4
# opt freq B3LYP/6-31G(d) empiricaldispersion=gd3bj scf=xqc

CID_79478013_JID_8899_neutraal

0 1
C          1.04552       -0.08382        0.03004
C          0.05048        1.01850        0.36429
C          0.72253        2.26596        0.96416
C          1.58299        2.99951       -0.07008
C         -0.33469        3.22375        1.55474
N          0.11467        3.64269        2.91063
C          0.48807        5.06994        3.03162
C         -0.70001        6.01463        3.05760
S         -0.62678        2.83101        4.21658
O         -1.77938        3.60789        4.62439
O         -0.79077        1.44690        3.82421
C          0.59001        2.93416        5.48949
C          1.62836        2.01865        5.59755
N          2.57299        2.13850        6.55851
C          2.47624        3.16178        7.43609
C          1.46107        4.09693        7.41293
C          0.49710        3.97793        6.42138
N          1.76310        0.86689        4.84975
H          1.72257        0.21430       -0.77541
H          0.51240       -0.98038       -0.30276
H          1.64421       -0.35377        0.90579
H         -0.51798        1.28625       -0.53433
H         -0.66790        0.60834        1.08433
H          1.39408        1.92843        1.76421
H          0.98742        3.30032       -0.93893
H          2.02927        3.90066        0.36284
H          2.40475        2.37040       -0.42482
H         -0.47909        4.09528        0.90568
H         -1.32157        2.75126        1.62289
H          1.11203        5.22118        3.91709
H          1.13026        5.32943        2.18117
H         -1.24686        5.94943        4.00157
H         -0.35423        7.04901        2.95972
H         -1.40246        5.81477        2.24319
H          3.25966        3.19992        8.18774
H          1.42004        4.89314        8.14751
H         -0.31845        4.69584        6.37478
H          2.64273        0.41153        5.06752
H          1.55610        0.94526        3.86191

--Link1--
%chk=JID_8899.chk
%mem=8GB
%nprocshared=4
# B3LYP/6-311++G(d,p) empiricaldispersion=gd3bj scf=xqc pop=npa geom=check

CID_79478013_JID_8899_Energie_neutraal

0 1

--Link1--
%chk=JID_8899.chk
%mem=8GB
%nprocshared=4
# B3LYP/6-311++G(d,p) empiricaldispersion=gd3bj scf=xqc pop=npa geom=check

CID_79478013_JID_8899_Energie_kation

1 2

--Link1--
%chk=JID_8899.chk
%mem=8GB
%nprocshared=4
# B3LYP/6-311++G(d,p) empiricaldispersion=gd3bj scf=xqc pop=npa geom=check

CID_79478013_JID_8899_Energie_anion

-1 2
