%chk=JID_10611.chk
%mem=8GB
%nprocshared=4
# opt freq B3LYP/6-31G(d) empiricaldispersion=gd3bj scf=xqc

CID_103457659_JID_10611_neutraal

0 1
C          0.95735       -0.08962        0.01220
O          1.40773        0.88800        0.94681
C          1.41879        0.33997        2.20419
C          2.63441        0.12250        2.82949
N          2.72560       -0.41310        4.06909
C          1.52960       -0.68392        4.68304
C          0.30397       -0.41369        4.06374
N          0.23389        0.09035        2.80040
O         -0.87506       -0.72320        4.69958
C         -2.01141       -0.05597        4.16262
C          1.63195       -1.29858        6.04272
O          0.65099       -1.42646        6.77235
C          3.01307       -1.82192        6.48842
C          3.42734       -3.11581        5.74016
C          4.81105       -3.62905        6.18931
C          4.79169       -4.23133        7.59336
C          3.73708       -5.32656        7.72306
C          2.35687       -4.85188        7.27798
C          2.39539       -4.25095        5.87447
O          4.03393       -0.83298        6.36508
H          0.88414        0.39235       -0.96745
H         -0.03405       -0.48046        0.26742
H          1.68178       -0.90791       -0.06624
H          3.56968        0.36115        2.33556
H         -1.86062        1.02894        4.12668
H         -2.26796       -0.45012        3.17396
H         -2.85756       -0.25015        4.82943
H          2.93045       -2.01796        7.56275
H          3.51883       -2.87668        4.67278
H          5.14443       -4.40092        5.48282
H          5.55977       -2.83058        6.14032
H          4.60137       -3.44699        8.33482
H          5.77886       -4.64758        7.82501
H          3.69105       -5.67390        8.76131
H          4.03576       -6.18835        7.11321
H          1.97184       -4.11450        7.99154
H          1.65904       -5.69697        7.29367
H          1.39419       -3.91026        5.58995
H          2.65558       -5.04541        5.16218
H          4.05155       -0.57137        5.42165

--Link1--
%chk=JID_10611.chk
%mem=8GB
%nprocshared=4
# B3LYP/6-311++G(d,p) empiricaldispersion=gd3bj scf=xqc pop=npa geom=check

CID_103457659_JID_10611_Energie_neutraal

0 1

--Link1--
%chk=JID_10611.chk
%mem=8GB
%nprocshared=4
# B3LYP/6-311++G(d,p) empiricaldispersion=gd3bj scf=xqc pop=npa geom=check

CID_103457659_JID_10611_Energie_kation

1 2

--Link1--
%chk=JID_10611.chk
%mem=8GB
%nprocshared=4
# B3LYP/6-311++G(d,p) empiricaldispersion=gd3bj scf=xqc pop=npa geom=check

CID_103457659_JID_10611_Energie_anion

-1 2
