%chk=JID_2580.chk
%mem=8GB
%nprocshared=4
# opt freq B3LYP/6-31G(d) empiricaldispersion=gd3bj scf=xqc

CID_149752101_JID_2580_neutraal

0 1
C          0.93668       -0.04452       -0.06332
C          0.30588       -0.76369       -1.24658
O          0.57196       -2.15782       -1.18917
C          0.42913       -0.59252        1.26917
O          0.97662        0.08170        2.40276
C          2.40704       -0.01973        2.56380
S          3.19304       -1.64664        2.60873
O          3.10199       -2.22935        1.28120
O          4.49127       -1.48947        3.23703
N          2.21149       -2.44273        3.61632
N          2.60657       -3.60667        3.74303
N          2.94442       -4.68653        3.88309
H          0.73461        1.03109       -0.12184
H          2.02387       -0.15765       -0.12375
H         -0.77969       -0.62474       -1.25335
H          0.70288       -0.37424       -2.18927
H          1.53650       -2.28277       -1.11522
H         -0.65585       -0.44607        1.32156
H          0.59298       -1.66946        1.36620
H          2.91111        0.56799        1.79064
H          2.64071        0.44829        3.52605

--Link1--
%chk=JID_2580.chk
%mem=8GB
%nprocshared=4
# B3LYP/6-311++G(d,p) empiricaldispersion=gd3bj scf=xqc pop=npa geom=check

CID_149752101_JID_2580_Energie_neutraal

0 1

--Link1--
%chk=JID_2580.chk
%mem=8GB
%nprocshared=4
# B3LYP/6-311++G(d,p) empiricaldispersion=gd3bj scf=xqc pop=npa geom=check

CID_149752101_JID_2580_Energie_kation

1 2

--Link1--
%chk=JID_2580.chk
%mem=8GB
%nprocshared=4
# B3LYP/6-311++G(d,p) empiricaldispersion=gd3bj scf=xqc pop=npa geom=check

CID_149752101_JID_2580_Energie_anion

-1 2
