%chk=JID_2415.chk
%mem=8GB
%nprocshared=4
# opt freq B3LYP/6-31G(d) empiricaldispersion=gd3bj scf=xqc

CID_154168103_JID_2415_neutraal

0 1
C          1.01786       -0.09236       -0.03392
C          0.38743        1.28732        0.09122
C          0.52980        2.13507       -1.17500
C         -0.22568        1.62325       -2.40948
C         -1.74419        1.73030       -2.30635
C         -2.32525        2.91105       -2.61630
C         -3.76576        3.41207       -2.69093
C         -3.82404        4.77597       -1.96924
C         -4.10541        3.62816       -4.17844
C         -4.85374        2.52240       -2.07441
C         -2.43905        0.44592       -1.92121
C         -2.77195       -0.40950       -3.13558
H          0.51146       -0.70410       -0.78526
H          0.95466       -0.62135        0.92247
H          2.07493       -0.01618       -0.30791
H         -0.66533        1.19255        0.37691
H          0.88355        1.81565        0.91469
H          0.20070        3.15692       -0.94700
H          1.59498        2.20883       -1.42880
H          0.10903        2.21248       -3.27478
H          0.06973        0.59502       -2.64705
H         -1.62487        3.70053       -2.90863
H         -3.12331        5.49724       -2.40677
H         -4.82538        5.21769       -2.03456
H         -3.57429        4.67238       -0.90664
H         -4.07685        2.68217       -4.73218
H         -5.10866        4.05312       -4.29923
H         -3.39874        4.31517       -4.65926
H         -4.94337        1.56424       -2.59456
H         -4.66588        2.33759       -1.01128
H         -5.83723        3.00392       -2.14266
H         -1.79799       -0.13709       -1.25110
H         -3.33821        0.63115       -1.33309
H         -1.86574       -0.69938       -3.67778
H         -3.28169       -1.32596       -2.82135
H         -3.42873        0.12016       -3.83289

--Link1--
%chk=JID_2415.chk
%mem=8GB
%nprocshared=4
# B3LYP/6-311++G(d,p) empiricaldispersion=gd3bj scf=xqc pop=npa geom=check

CID_154168103_JID_2415_Energie_neutraal

0 1

--Link1--
%chk=JID_2415.chk
%mem=8GB
%nprocshared=4
# B3LYP/6-311++G(d,p) empiricaldispersion=gd3bj scf=xqc pop=npa geom=check

CID_154168103_JID_2415_Energie_kation

1 2

--Link1--
%chk=JID_2415.chk
%mem=8GB
%nprocshared=4
# B3LYP/6-311++G(d,p) empiricaldispersion=gd3bj scf=xqc pop=npa geom=check

CID_154168103_JID_2415_Energie_anion

-1 2
