%chk=JID_2844.chk
%mem=8GB
%nprocshared=4
# opt freq B3LYP/6-31G(d) empiricaldispersion=gd3bj scf=xqc

CID_129984724_JID_2844_neutraal

0 1
C         -1.43100        0.32400       -0.23100
C         -1.00905       -1.07727        0.19096
C          0.41652       -1.39404       -0.25466
C          1.43315       -0.34970        0.25512
C          0.98375        1.06252       -0.16938
C         -0.44582        1.37158        0.27084
C          2.86416       -0.67438       -0.25622
C          3.95611        0.33601        0.15282
O          3.98828        0.55806        1.55847
N          3.27102       -2.04491        0.14380
N          3.39898       -2.28374        1.36078
N          3.49745       -2.53401        2.46846
H         -2.43223        0.54165        0.15740
H         -1.49392        0.37423       -1.32496
H         -1.07886       -1.16862        1.28190
H         -1.69970       -1.81347       -0.23562
H          0.44991       -1.43801       -1.35087
H          0.67759       -2.39368        0.11057
H          1.42652       -0.38940        1.35284
H          1.05482        1.16054       -1.26019
H          1.64352        1.82275        0.26175
H         -0.73900        2.35990       -0.10106
H         -0.48709        1.41795        1.36611
H          2.83965       -0.68050       -1.35390
H          4.94244       -0.03787       -0.14277
H          3.81301        1.30001       -0.34577
H          3.22869        1.11622        1.79635

--Link1--
%chk=JID_2844.chk
%mem=8GB
%nprocshared=4
# B3LYP/6-311++G(d,p) empiricaldispersion=gd3bj scf=xqc pop=npa geom=check

CID_129984724_JID_2844_Energie_neutraal

0 1

--Link1--
%chk=JID_2844.chk
%mem=8GB
%nprocshared=4
# B3LYP/6-311++G(d,p) empiricaldispersion=gd3bj scf=xqc pop=npa geom=check

CID_129984724_JID_2844_Energie_kation

1 2

--Link1--
%chk=JID_2844.chk
%mem=8GB
%nprocshared=4
# B3LYP/6-311++G(d,p) empiricaldispersion=gd3bj scf=xqc pop=npa geom=check

CID_129984724_JID_2844_Energie_anion

-1 2
