%chk=JID_4069.chk
%mem=8GB
%nprocshared=4
# opt freq B3LYP/6-31G(d) empiricaldispersion=gd3bj scf=xqc

CID_84034649_JID_4069_neutraal

0 1
C          0.97177        0.06339        0.07201
C         -0.04604       -1.06906        0.22853
C         -1.48468       -0.56532        0.03882
N         -1.73494       -0.21090       -1.33649
C         -1.24002       -0.96475       -2.38136
O         -1.54464       -0.71581       -3.53886
C         -0.28315       -2.14256       -2.01741
O         -0.05019       -3.01137       -2.84907
N          0.23297       -2.15834       -0.71496
C          1.14044       -3.23233       -0.30719
C          0.45012       -4.34208        0.53132
C         -0.54712       -5.13675       -0.31874
N          1.49716       -5.21222        1.09756
C          1.01705       -6.06239        2.17786
H          0.76273        0.87357        0.77820
H          0.96701        0.48223       -0.93981
H          1.98679       -0.29848        0.26784
H          0.03638       -1.46962        1.24596
H         -2.19968       -1.35382        0.30047
H         -1.69226        0.30984        0.66229
H         -2.43876        0.47157       -1.59006
H          1.60507       -3.67623       -1.19629
H          1.95052       -2.76998        0.27061
H         -0.09520       -3.85846        1.35134
H         -0.05158       -5.62354       -1.16592
H         -1.05219       -5.91054        0.26763
H         -1.33172       -4.48424       -0.71468
H          1.89317       -5.79571        0.35867
H          0.29379       -6.80513        1.82976
H          1.86324       -6.60602        2.60987
H          0.56681       -5.47010        2.98086

--Link1--
%chk=JID_4069.chk
%mem=8GB
%nprocshared=4
# B3LYP/6-311++G(d,p) empiricaldispersion=gd3bj scf=xqc pop=npa geom=check

CID_84034649_JID_4069_Energie_neutraal

0 1

--Link1--
%chk=JID_4069.chk
%mem=8GB
%nprocshared=4
# B3LYP/6-311++G(d,p) empiricaldispersion=gd3bj scf=xqc pop=npa geom=check

CID_84034649_JID_4069_Energie_kation

1 2

--Link1--
%chk=JID_4069.chk
%mem=8GB
%nprocshared=4
# B3LYP/6-311++G(d,p) empiricaldispersion=gd3bj scf=xqc pop=npa geom=check

CID_84034649_JID_4069_Energie_anion

-1 2
