%chk=JID_8077.chk
%mem=8GB
%nprocshared=4
# opt freq B3LYP/6-31G(d) empiricaldispersion=gd3bj scf=xqc

CID_128113658_JID_8077_neutraal

0 1
C          1.06961       -0.06087        0.03808
C          0.72843        1.21956        0.80529
C          1.67508        2.37256        0.43493
C          1.40645        2.95816       -0.95562
C         -0.04666        3.35274       -1.10640
C         -0.54078        4.55606       -1.46117
C          0.20622        5.72043       -1.80109
N          1.50990        5.85471       -1.96746
C          1.67607        7.17562       -2.29593
N          0.53708        7.87151       -2.34672
O         -0.43118        6.92839       -2.02810
C          3.01351        7.76300       -2.56965
C          4.19664        7.05642       -2.52278
N          5.33956        7.78383       -2.81007
C          4.99950        9.02780       -3.06920
S          3.32462        9.39135       -2.98526
C         -1.00129        2.21572       -0.79467
C         -0.73630        1.63496        0.59573
H          0.96360        0.05889       -1.04393
H          0.41423       -0.88132        0.34947
H          2.10173       -0.36625        0.24081
H          0.86704        0.99822        1.87169
H          1.56329        3.17121        1.18075
H          2.71772        2.03765        0.49503
H          1.65268        2.21996       -1.72831
H          2.09760        3.78882       -1.10215
H         -1.61925        4.68666       -1.50606
H          4.28814        6.00284       -2.28377
H          5.72988        9.78549       -3.32206
H         -0.88840        1.43718       -1.55868
H         -2.04664        2.54418       -0.84395
H         -1.40043        0.77962        0.76865
H         -0.99887        2.38895        1.34994

--Link1--
%chk=JID_8077.chk
%mem=8GB
%nprocshared=4
# B3LYP/6-311++G(d,p) empiricaldispersion=gd3bj scf=xqc pop=npa geom=check

CID_128113658_JID_8077_Energie_neutraal

0 1

--Link1--
%chk=JID_8077.chk
%mem=8GB
%nprocshared=4
# B3LYP/6-311++G(d,p) empiricaldispersion=gd3bj scf=xqc pop=npa geom=check

CID_128113658_JID_8077_Energie_kation

1 2

--Link1--
%chk=JID_8077.chk
%mem=8GB
%nprocshared=4
# B3LYP/6-311++G(d,p) empiricaldispersion=gd3bj scf=xqc pop=npa geom=check

CID_128113658_JID_8077_Energie_anion

-1 2
