%chk=JID_9584.chk
%mem=8GB
%nprocshared=4
# opt freq B3LYP/6-31G(d) empiricaldispersion=gd3bj scf=xqc

CID_107888629_JID_9584_neutraal

0 1
C          0.97236        0.07122       -0.06453
C          0.58139        0.10251       -1.53328
C          0.80221       -1.23532       -2.25124
C          0.04586       -2.47087       -1.66720
C         -1.45973       -2.18170       -1.74732
N          0.58839       -3.67167       -2.35480
C          1.87489       -4.07949       -1.72002
C          2.74065       -4.99310       -2.61971
C          4.04019       -5.39850       -1.90012
C          4.98554       -5.82981       -3.01616
C          4.59958       -4.97958       -4.22501
C          3.30947       -4.24816       -3.84578
N          2.01175       -6.21644       -2.99830
C          0.65706       -5.90063       -3.48524
C         -0.22876       -4.89525       -2.62777
C         -1.43872       -4.60008       -3.55282
C         -0.74155       -5.50643       -1.31475
C         -1.58714       -6.76318       -1.30025
C         -0.22029       -6.78013       -0.68172
H          0.29887       -0.56497        0.51684
H          0.91962        1.07943        0.35896
H          1.99536       -0.29642        0.06342
H         -0.45658        0.43520       -1.63482
H          1.19135        0.86253       -2.03751
H          0.51226       -1.10857       -3.30364
H          1.88419       -1.40710       -2.26731
H          0.27249       -2.56490       -0.59758
H         -1.78281       -1.99007       -2.77531
H         -2.06220       -2.98411       -1.31786
H         -1.71885       -1.29550       -1.15865
H          1.68135       -4.57527       -0.75909
H          2.47950       -3.20224       -1.46327
H          4.47309       -4.53875       -1.37229
H          3.89333       -6.19299       -1.15998
H          4.84536       -6.89218       -3.24763
H          6.03439       -5.69304       -2.73530
H          4.45048       -5.61332       -5.10579
H          5.38827       -4.25971       -4.46989
H          2.61784       -4.19384       -4.69236
H          3.55717       -3.21223       -3.57968
H          2.51394       -6.72196       -3.72509
H          0.12731       -6.85343       -3.60235
H          0.75884       -5.49541       -4.50140
H         -1.79247       -5.51812       -4.03939
H         -2.30906       -4.21120       -3.02135
H         -1.16868       -3.90113       -4.35273
H         -1.05032       -4.74098       -0.61102
H         -2.44456       -6.78539       -0.63645
H         -1.73038       -7.32368       -2.21600
H          0.54774       -7.36447       -1.17144
H         -0.14939       -6.80689        0.40045

--Link1--
%chk=JID_9584.chk
%mem=8GB
%nprocshared=4
# B3LYP/6-311++G(d,p) empiricaldispersion=gd3bj scf=xqc pop=npa geom=check

CID_107888629_JID_9584_Energie_neutraal

0 1

--Link1--
%chk=JID_9584.chk
%mem=8GB
%nprocshared=4
# B3LYP/6-311++G(d,p) empiricaldispersion=gd3bj scf=xqc pop=npa geom=check

CID_107888629_JID_9584_Energie_kation

1 2

--Link1--
%chk=JID_9584.chk
%mem=8GB
%nprocshared=4
# B3LYP/6-311++G(d,p) empiricaldispersion=gd3bj scf=xqc pop=npa geom=check

CID_107888629_JID_9584_Energie_anion

-1 2
