%chk=JID_8798.chk
%mem=8GB
%nprocshared=4
# opt freq B3LYP/6-31G(d) empiricaldispersion=gd3bj scf=xqc

CID_79873788_JID_8798_neutraal

0 1
C          0.78100       -1.26600       -0.21900
C          1.59522       -0.03001        0.15120
C          0.94324        1.23592       -0.42364
C         -0.53472        1.27843       -0.02275
O         -1.20990        0.09797       -0.45703
C         -0.68276       -1.07940        0.15442
C          1.64766        2.52706        0.02188
N          3.06114        2.57928       -0.36631
C          3.39020        2.80248       -1.69237
C          4.65518        2.80769       -2.14209
C          5.72753        2.56703       -1.14984
O          6.91178        2.46226       -1.44725
N          5.32586        2.42887        0.15186
C          4.03496        2.36647        0.60173
O          3.79983        2.12302        1.78208
C          4.95314        3.04688       -3.56644
O          6.03487        3.30383       -4.06001
O          3.86414        2.95924       -4.35820
H          0.85863       -1.42488       -1.30165
H          1.19022       -2.15289        0.27597
H          1.66163        0.04649        1.24377
H          2.61660       -0.14748       -0.22746
H          0.99235        1.15619       -1.51827
H         -0.65951        1.38975        1.06148
H         -1.03084        2.13081       -0.49903
H         -1.27014       -1.93202       -0.20069
H         -0.81303       -1.01646        1.24120
H          1.14973        3.39998       -0.42003
H          1.56001        2.64118        1.10905
H          2.55033        2.96895       -2.36304
H          6.04731        2.24199        0.83132
H          4.22626        3.12252       -5.25631

--Link1--
%chk=JID_8798.chk
%mem=8GB
%nprocshared=4
# B3LYP/6-311++G(d,p) empiricaldispersion=gd3bj scf=xqc pop=npa geom=check

CID_79873788_JID_8798_Energie_neutraal

0 1

--Link1--
%chk=JID_8798.chk
%mem=8GB
%nprocshared=4
# B3LYP/6-311++G(d,p) empiricaldispersion=gd3bj scf=xqc pop=npa geom=check

CID_79873788_JID_8798_Energie_kation

1 2

--Link1--
%chk=JID_8798.chk
%mem=8GB
%nprocshared=4
# B3LYP/6-311++G(d,p) empiricaldispersion=gd3bj scf=xqc pop=npa geom=check

CID_79873788_JID_8798_Energie_anion

-1 2
