%chk=JID_10317.chk
%mem=8GB
%nprocshared=4
# opt freq B3LYP/6-31G(d) empiricaldispersion=gd3bj scf=xqc

CID_106618946_JID_10317_neutraal

0 1
C          0.90528       -0.00050        0.03208
C          1.44664        0.85405        1.16351
O          2.24921        1.87067        0.56427
C          3.38816        2.13180        1.29363
N          3.31006        2.19372        2.63435
C          4.44051        2.45385        3.29976
N          5.61294        2.63239        2.65916
C          5.64734        2.58417        1.31081
C          4.52463        2.35221        0.56610
C          6.96945        2.80171        0.64287
N          4.42525        2.57738        4.68087
C          5.71967        2.46418        5.37884
C          6.44705        3.81906        5.59777
C          5.66930        4.82534        6.44979
C          6.01627        6.16666        5.83376
C          6.14434        5.82138        4.36700
N          6.85447        4.54365        4.37394
C          3.20965        2.31852        5.46842
C          2.06819        3.28185        5.14086
C          2.77620        0.85449        5.41377
H          0.32419        0.60766       -0.66918
H          0.26629       -0.79969        0.41813
H          1.72571       -0.44905       -0.53819
H          0.62559        1.32634        1.71364
H          2.01081        0.20523        1.84541
H          4.52752        2.31460       -0.51354
H          6.93622        3.70506        0.02617
H          7.76617        2.92010        1.38380
H          7.21841        1.94359        0.01038
H          5.56711        2.00865        6.36652
H          6.38752        1.76469        4.85746
H          7.38034        3.58595        6.12699
H          4.58824        4.67239        6.38550
H          5.95480        4.78091        7.50545
H          5.24888        6.92256        6.02270
H          6.97055        6.53376        6.23079
H          5.15463        5.70405        3.90970
H          6.69679        6.58174        3.80826
H          6.55459        3.98940        3.56081
H          3.45255        2.52255        6.52040
H          1.58102        3.05445        4.18894
H          1.29434        3.22440        5.91486
H          2.42497        4.31648        5.10111
H          3.61031        0.18989        5.66327
H          1.97241        0.66826        6.13459
H          2.40293        0.56567        4.42741

--Link1--
%chk=JID_10317.chk
%mem=8GB
%nprocshared=4
# B3LYP/6-311++G(d,p) empiricaldispersion=gd3bj scf=xqc pop=npa geom=check

CID_106618946_JID_10317_Energie_neutraal

0 1

--Link1--
%chk=JID_10317.chk
%mem=8GB
%nprocshared=4
# B3LYP/6-311++G(d,p) empiricaldispersion=gd3bj scf=xqc pop=npa geom=check

CID_106618946_JID_10317_Energie_kation

1 2

--Link1--
%chk=JID_10317.chk
%mem=8GB
%nprocshared=4
# B3LYP/6-311++G(d,p) empiricaldispersion=gd3bj scf=xqc pop=npa geom=check

CID_106618946_JID_10317_Energie_anion

-1 2
