%chk=JID_8942.chk
%mem=8GB
%nprocshared=4
# opt freq B3LYP/6-31G(d) empiricaldispersion=gd3bj scf=xqc

CID_105651556_JID_8942_neutraal

0 1
C          1.00990       -0.07664       -0.06347
O          0.05932       -0.67597       -0.93523
C          0.65449       -1.52233       -1.92602
C          0.68846       -0.83427       -3.30788
C          1.78011        0.25215       -3.39546
O          3.05292       -0.24951       -2.98777
N          0.94290       -1.81396       -4.37945
C         -0.09325       -2.52269       -4.94842
N          0.14861       -3.83089       -5.16620
C         -0.79742       -4.57385       -5.80982
C         -1.98942       -4.02699       -6.24351
C         -2.25120       -2.67950       -6.01187
C         -1.28062       -1.92148       -5.35970
N         -2.95885       -4.81931       -6.95580
O         -4.12262       -4.78795       -6.53795
O         -2.56519       -5.42977       -7.95524
C         -0.46943       -5.96590       -5.94846
N         -0.23133       -7.09881       -6.04535
H          0.46329        0.43115        0.73601
H          1.61085        0.66603       -0.59100
H          1.65797       -0.83284        0.39018
H          1.64100       -1.88767       -1.61452
H          0.00973       -2.40729       -1.98560
H         -0.26504       -0.31845       -3.46688
H          1.87093        0.61233       -4.42664
H          1.52762        1.10813       -2.76344
H          3.71123        0.42621       -3.22733
H          1.70833       -2.45041       -4.15777
H         -3.17490       -2.21315       -6.34617
H         -1.44721       -0.85874       -5.21664

--Link1--
%chk=JID_8942.chk
%mem=8GB
%nprocshared=4
# B3LYP/6-311++G(d,p) empiricaldispersion=gd3bj scf=xqc pop=npa geom=check

CID_105651556_JID_8942_Energie_neutraal

0 1

--Link1--
%chk=JID_8942.chk
%mem=8GB
%nprocshared=4
# B3LYP/6-311++G(d,p) empiricaldispersion=gd3bj scf=xqc pop=npa geom=check

CID_105651556_JID_8942_Energie_kation

1 2

--Link1--
%chk=JID_8942.chk
%mem=8GB
%nprocshared=4
# B3LYP/6-311++G(d,p) empiricaldispersion=gd3bj scf=xqc pop=npa geom=check

CID_105651556_JID_8942_Energie_anion

-1 2
