%chk=JID_8180.chk
%mem=8GB
%nprocshared=4
# opt freq B3LYP/6-31G(d) empiricaldispersion=gd3bj scf=xqc

CID_116928498_JID_8180_neutraal

0 1
C         -3.40300        0.03800        0.00100
C         -1.93651       -0.01787       -0.19418
N         -1.25058       -0.99539       -0.74832
C          0.06360       -0.60155       -0.69599
C          0.18395        0.64516       -0.09675
N         -1.10565        1.00060        0.20321
C          1.40845        1.28736        0.10159
C          2.56731        0.60588       -0.31203
C          2.46009       -0.64326       -0.94548
C          1.21639       -1.26006       -1.14066
C          3.92386        1.23316       -0.10387
C          4.67351        0.94902        1.22091
C          5.09904       -0.51714        1.41419
C          4.07884       -1.39655        2.12867
C          3.58217       -0.76142        3.42120
C          3.00960        0.62808        3.17423
C          4.00756        1.54401        2.47432
O          2.57936       -1.58760        4.00465
H         -3.64837        0.29480        1.03618
H         -3.84831        0.78806       -0.65967
H         -3.85862       -0.93085       -0.22555
H         -1.39470        1.85798        0.65014
H          1.46317        2.26307        0.57326
H          3.35433       -1.16077       -1.28800
H          1.13820       -2.22967       -1.61921
H          4.57137        0.93453       -0.94033
H          3.81846        2.32122       -0.21846
H          5.61358        1.50967        1.09993
H          6.01637       -0.52135        2.01896
H          5.37328       -0.96884        0.45377
H          4.52654       -2.37322        2.35138
H          3.22952       -1.61907        1.47629
H          4.40698       -0.69635        4.14006
H          2.08187        0.54746        2.60088
H          2.71022        1.07406        4.13110
H          4.80303        1.77398        3.19658
H          3.53217        2.50354        2.23979
H          1.86548       -1.69277        3.35057

--Link1--
%chk=JID_8180.chk
%mem=8GB
%nprocshared=4
# B3LYP/6-311++G(d,p) empiricaldispersion=gd3bj scf=xqc pop=npa geom=check

CID_116928498_JID_8180_Energie_neutraal

0 1

--Link1--
%chk=JID_8180.chk
%mem=8GB
%nprocshared=4
# B3LYP/6-311++G(d,p) empiricaldispersion=gd3bj scf=xqc pop=npa geom=check

CID_116928498_JID_8180_Energie_kation

1 2

--Link1--
%chk=JID_8180.chk
%mem=8GB
%nprocshared=4
# B3LYP/6-311++G(d,p) empiricaldispersion=gd3bj scf=xqc pop=npa geom=check

CID_116928498_JID_8180_Energie_anion

-1 2
