%chk=JID_381.chk
%mem=8GB
%nprocshared=4
# opt freq B3LYP/6-31G(d) empiricaldispersion=gd3bj scf=xqc

CID_71331542_JID_381_neutraal

0 1
C         -0.10400        1.30600        0.00200
C          0.74119        0.07799       -0.00713
O          1.95584        0.01894       -0.01932
N         -0.15603       -0.97100        0.00145
N         -1.46998       -0.59683        0.01544
C         -1.49289        0.71487        0.01654
S         -3.08217        1.51843        0.03370
O         -3.72502        1.29737       -1.24066
O         -3.71354        1.26848        1.30848
O         -2.58689        3.05756        0.04986
H          0.04382        1.89514       -0.90453
H          0.06298        1.89477        0.90543
H          0.11268       -1.94969       -0.00173
H         -3.38177        3.63276        0.07887

--Link1--
%chk=JID_381.chk
%mem=8GB
%nprocshared=4
# B3LYP/6-311++G(d,p) empiricaldispersion=gd3bj scf=xqc pop=npa geom=check

CID_71331542_JID_381_Energie_neutraal

0 1

--Link1--
%chk=JID_381.chk
%mem=8GB
%nprocshared=4
# B3LYP/6-311++G(d,p) empiricaldispersion=gd3bj scf=xqc pop=npa geom=check

CID_71331542_JID_381_Energie_kation

1 2

--Link1--
%chk=JID_381.chk
%mem=8GB
%nprocshared=4
# B3LYP/6-311++G(d,p) empiricaldispersion=gd3bj scf=xqc pop=npa geom=check

CID_71331542_JID_381_Energie_anion

-1 2
