%chk=JID_8906.chk
%mem=8GB
%nprocshared=4
# opt freq B3LYP/6-31G(d) empiricaldispersion=gd3bj scf=xqc

CID_80108787_JID_8906_neutraal

0 1
C         -2.76200        0.00000       -0.07900
C         -1.90659        1.25502       -0.03058
O         -1.00385        1.30967       -1.13610
C          0.16483        0.61874       -0.93796
C          0.30199       -0.55588       -0.18318
C          1.56516       -1.12642       -0.00871
C          2.68382       -0.55764       -0.62597
C          2.53714        0.56575       -1.44340
C          1.27973        1.15569       -1.58905
C          3.99181       -1.22761       -0.46105
O          4.07692       -2.44328       -0.60050
N          5.10543       -0.49238       -0.12561
C          5.15877        0.90066        0.36187
C          4.42343        1.19480        1.67803
O          5.61423        1.78632        2.25540
C          6.41580        1.25382        1.17304
O         -0.72714       -1.22835        0.42753
C         -1.92686       -1.23979       -0.34904
H         -3.52402        0.08575       -0.86203
H         -3.28866       -0.09861        0.87717
H         -2.55785        2.13378       -0.09905
H         -1.37095        1.35091        0.92379
H          1.67096       -2.03289        0.58361
H          3.38490        0.97565       -1.98486
H          1.16529        2.04051       -2.21097
H          5.91661       -1.09440       -0.01875
H          4.97115        1.62893       -0.43329
H          3.60750        1.91881        1.60150
H          4.09604        0.32769        2.26029
H          7.02959        0.41454        1.51569
H          7.05640        2.01967        0.72665
H         -2.49748       -2.12870       -0.05717
H         -1.70810       -1.35966       -1.41912

--Link1--
%chk=JID_8906.chk
%mem=8GB
%nprocshared=4
# B3LYP/6-311++G(d,p) empiricaldispersion=gd3bj scf=xqc pop=npa geom=check

CID_80108787_JID_8906_Energie_neutraal

0 1

--Link1--
%chk=JID_8906.chk
%mem=8GB
%nprocshared=4
# B3LYP/6-311++G(d,p) empiricaldispersion=gd3bj scf=xqc pop=npa geom=check

CID_80108787_JID_8906_Energie_kation

1 2

--Link1--
%chk=JID_8906.chk
%mem=8GB
%nprocshared=4
# B3LYP/6-311++G(d,p) empiricaldispersion=gd3bj scf=xqc pop=npa geom=check

CID_80108787_JID_8906_Energie_anion

-1 2
