%chk=JID_4160.chk
%mem=8GB
%nprocshared=4
# opt freq B3LYP/6-31G(d) empiricaldispersion=gd3bj scf=xqc

CID_154111779_JID_4160_neutraal

0 1
C          1.03201        0.09417       -0.01039
C          0.74160       -0.31672        1.42520
C          0.82384        0.84145        2.42388
C         -0.18853        1.97072        2.20601
C         -1.65855        1.59683        2.45210
C         -2.03553        1.52306        3.93552
C         -2.46901        2.63132        4.58347
C         -2.97974        2.69619        5.99048
C         -2.53270        4.00306        3.87528
O         -1.51969        4.73878        4.05182
O         -3.60508        4.23552        3.24773
N         -1.93145        0.26837        4.56779
C         -2.31806       -0.97357        3.91462
C         -1.10634        0.10078        5.76281
H          0.25183        0.75136       -0.40511
H          1.07289       -0.79148       -0.65276
H          1.99381        0.61110       -0.08551
H         -0.23885       -0.79953        1.46875
H          1.47493       -1.07650        1.72182
H          0.72149        0.44282        3.43840
H          1.83196        1.27219        2.37020
H          0.09094        2.80705        2.85820
H         -0.09178        2.35163        1.18291
H         -2.28485        2.34280        1.94830
H         -1.90649        0.66505        1.93495
H         -2.23033        3.15154        6.64560
H         -3.89049        3.30330        6.04056
H         -3.24182        1.71390        6.39276
H         -1.48180       -1.39182        3.34788
H         -2.62830       -1.71625        4.65809
H         -3.16774       -0.82169        3.24043
H         -0.63720        1.03712        6.08340
H         -1.71548       -0.28000        6.58900
H         -0.29985       -0.61596        5.57212

--Link1--
%chk=JID_4160.chk
%mem=8GB
%nprocshared=4
# B3LYP/6-311++G(d,p) empiricaldispersion=gd3bj scf=xqc pop=npa geom=check

CID_154111779_JID_4160_Energie_neutraal

0 1

--Link1--
%chk=JID_4160.chk
%mem=8GB
%nprocshared=4
# B3LYP/6-311++G(d,p) empiricaldispersion=gd3bj scf=xqc pop=npa geom=check

CID_154111779_JID_4160_Energie_kation

1 2

--Link1--
%chk=JID_4160.chk
%mem=8GB
%nprocshared=4
# B3LYP/6-311++G(d,p) empiricaldispersion=gd3bj scf=xqc pop=npa geom=check

CID_154111779_JID_4160_Energie_anion

-1 2
