%chk=JID_9905.chk
%mem=8GB
%nprocshared=4
# opt freq B3LYP/6-31G(d) empiricaldispersion=gd3bj scf=xqc

CID_113519296_JID_9905_neutraal

0 1
C          1.05001       -0.07878       -0.03596
C          0.46153        0.72206       -1.18489
C         -1.04568        0.91588       -1.06843
C         -1.32574        2.08231       -2.03048
N         -0.07046        2.85963       -2.02733
C          0.96068        2.16792       -1.24468
C          0.02872        4.23878       -2.07327
N         -0.92636        5.01064       -1.53949
C         -0.79086        6.34973       -1.60200
N          0.25265        6.97201       -2.17106
C          1.21037        6.19320       -2.70056
C          1.13591        4.81612       -2.66524
N          2.31436        6.79839       -3.36786
N          2.32483        8.22021       -3.40248
C         -1.86900        7.19955       -0.93203
C         -3.25586        6.80001       -1.46607
C         -1.81365        6.96325        0.58740
C         -1.66575        8.70442       -1.20159
C         -2.61934        2.78416       -1.65873
H          0.63888       -1.09339       -0.02349
H          0.83159        0.38556        0.93157
H          2.13766       -0.15331       -0.13601
H          0.68989        0.21898       -2.13393
H         -1.60350        0.01518       -1.34468
H         -1.32141        1.18306       -0.04021
H         -1.44025        1.67586       -3.04387
H          1.03115        2.59974       -0.23767
H          1.94591        2.21649       -1.72099
H          1.89745        4.20624       -3.13187
H          3.18397        6.38482       -3.02466
H          1.61118        8.52095       -4.07497
H          1.94859        8.56486       -2.50967
H         -3.49920        5.75868       -1.22825
H         -4.04302        7.42421       -1.02761
H         -3.30839        6.91034       -2.55555
H         -0.83058        7.22799        0.99474
H         -2.56522        7.56639        1.10948
H         -2.00046        5.91313        0.84119
H         -0.70408        9.05808       -0.81111
H         -1.69037        8.92537       -2.27525
H         -2.45119        9.30113       -0.72328
H         -2.87056        3.56357       -2.38504
H         -3.45085        2.07036       -1.65702
H         -2.57208        3.23196       -0.66062

--Link1--
%chk=JID_9905.chk
%mem=8GB
%nprocshared=4
# B3LYP/6-311++G(d,p) empiricaldispersion=gd3bj scf=xqc pop=npa geom=check

CID_113519296_JID_9905_Energie_neutraal

0 1

--Link1--
%chk=JID_9905.chk
%mem=8GB
%nprocshared=4
# B3LYP/6-311++G(d,p) empiricaldispersion=gd3bj scf=xqc pop=npa geom=check

CID_113519296_JID_9905_Energie_kation

1 2

--Link1--
%chk=JID_9905.chk
%mem=8GB
%nprocshared=4
# B3LYP/6-311++G(d,p) empiricaldispersion=gd3bj scf=xqc pop=npa geom=check

CID_113519296_JID_9905_Energie_anion

-1 2
