%chk=JID_9507.chk
%mem=8GB
%nprocshared=4
# opt freq B3LYP/6-31G(d) empiricaldispersion=gd3bj scf=xqc

CID_135062176_JID_9507_neutraal

0 1
C          2.49200        0.00400       -0.01400
C          1.01013       -0.12283       -0.20541
C          0.37147       -1.33981        0.06009
C         -1.00203       -1.50150       -0.17615
C         -1.73880       -0.42115       -0.67453
C         -1.10995        0.79549       -0.93956
C          0.25970        0.94145       -0.71552
C         -1.65577       -2.84491        0.05199
C         -1.65013       -3.74164       -1.19254
C         -0.27393       -4.21658       -1.54314
N          0.33578       -5.22037       -0.94046
C          1.58804       -5.28895       -1.49237
C          2.64672       -6.16070       -1.19834
C          3.85054       -6.02066       -1.89939
C          3.99627       -5.03330       -2.87538
C          2.94923       -4.15685       -3.18372
C          1.75490       -4.31454       -2.46906
N          0.54778       -3.65009       -2.49484
C          0.26511       -2.53260       -3.36320
H          2.82800       -0.59653        0.83786
H          3.01504       -0.33302       -0.91434
H          2.77317        1.04249        0.18990
H          0.95412       -2.18195        0.43458
H         -2.80501       -0.52142       -0.86344
H         -1.68704        1.63146       -1.32642
H          0.73750        1.89254       -0.93909
H         -1.16590       -3.35122        0.89415
H         -2.69378       -2.68031        0.36879
H         -2.26076       -4.62809       -0.97725
H         -2.13602       -3.24426       -2.03764
H          2.52499       -6.92230       -0.43660
H          4.67900       -6.68885       -1.67760
H          4.94163       -4.94236       -3.40635
H          3.06786       -3.39011       -3.94127
H          1.00555       -1.75054       -3.17496
H          0.33486       -2.87842       -4.39810
H         -0.73303       -2.13562       -3.18412

--Link1--
%chk=JID_9507.chk
%mem=8GB
%nprocshared=4
# B3LYP/6-311++G(d,p) empiricaldispersion=gd3bj scf=xqc pop=npa geom=check

CID_135062176_JID_9507_Energie_neutraal

0 1

--Link1--
%chk=JID_9507.chk
%mem=8GB
%nprocshared=4
# B3LYP/6-311++G(d,p) empiricaldispersion=gd3bj scf=xqc pop=npa geom=check

CID_135062176_JID_9507_Energie_kation

1 2

--Link1--
%chk=JID_9507.chk
%mem=8GB
%nprocshared=4
# B3LYP/6-311++G(d,p) empiricaldispersion=gd3bj scf=xqc pop=npa geom=check

CID_135062176_JID_9507_Energie_anion

-1 2
