%chk=JID_10282.chk
%mem=8GB
%nprocshared=4
# opt freq B3LYP/6-31G(d) empiricaldispersion=gd3bj scf=xqc

CID_119834246_JID_10282_neutraal

0 1
C          0.95473       -0.05486        0.07030
N         -0.14811        0.57309        0.78893
C         -1.36403        0.69913       -0.04335
C         -1.94038       -0.69265       -0.35682
O         -2.21798       -1.45600        0.57526
N         -2.04379       -1.09745       -1.68858
C         -2.16654       -2.54747       -1.88634
C         -2.39252       -2.99343       -3.33784
N         -1.52670       -2.31814       -4.32670
C         -1.78591       -0.87064       -4.20983
C         -1.53694       -0.28657       -2.80405
C         -0.08314       -2.61187       -4.13636
C          0.26168       -4.11310       -4.23405
O         -0.39745       -4.88973       -4.92977
N          1.37167       -4.56104       -3.50837
C          2.10903       -3.74488       -2.53603
C          3.50722       -4.29687       -2.24146
O          3.45801       -5.68436       -1.89675
C          2.92473       -6.44171       -2.99187
C          1.49320       -6.00991       -3.31216
H          1.22450        0.52293       -0.81938
H          0.72708       -1.08383       -0.22489
H          1.83547       -0.08540        0.71938
H         -0.39474       -0.01590        1.59085
H         -2.12761        1.24003        0.52698
H         -1.14703        1.30548       -0.92228
H         -1.24386       -3.00095       -1.50176
H         -2.98649       -2.92057       -1.26092
H         -3.43741       -2.78680       -3.60686
H         -2.29716       -4.08251       -3.40446
H         -2.83307       -0.68624       -4.48514
H         -1.19080       -0.31839       -4.94751
H         -2.00712        0.70138       -2.74999
H         -0.46136       -0.14804       -2.64719
H          0.49553       -2.11153       -4.92198
H          0.24249       -2.22037       -3.17276
H          1.50827       -3.73465       -1.61892
H          2.21028       -2.71831       -2.89833
H          4.16920       -4.16572       -3.10583
H          3.95057       -3.75476       -1.40002
H          2.94179       -7.49839       -2.70761
H          3.57806       -6.31891       -3.86380
H          0.83678       -6.25764       -2.46872
H          1.12975       -6.55297       -4.19036

--Link1--
%chk=JID_10282.chk
%mem=8GB
%nprocshared=4
# B3LYP/6-311++G(d,p) empiricaldispersion=gd3bj scf=xqc pop=npa geom=check

CID_119834246_JID_10282_Energie_neutraal

0 1

--Link1--
%chk=JID_10282.chk
%mem=8GB
%nprocshared=4
# B3LYP/6-311++G(d,p) empiricaldispersion=gd3bj scf=xqc pop=npa geom=check

CID_119834246_JID_10282_Energie_kation

1 2

--Link1--
%chk=JID_10282.chk
%mem=8GB
%nprocshared=4
# B3LYP/6-311++G(d,p) empiricaldispersion=gd3bj scf=xqc pop=npa geom=check

CID_119834246_JID_10282_Energie_anion

-1 2
