%chk=JID_7613.chk
%mem=8GB
%nprocshared=4
# opt freq B3LYP/6-31G(d) empiricaldispersion=gd3bj scf=xqc

CID_113818452_JID_7613_neutraal

0 1
C          0.96679        0.05940        0.07327
C          0.66556        1.55463        0.05198
C          1.49415        2.39372       -0.96020
C          1.15627        1.97059       -2.40505
C          1.09617        3.87653       -0.80433
C          3.02036        2.21397       -0.74938
N          3.45891        2.57269        0.58858
C          4.40557        1.99533        1.41044
O          4.60035        2.55520        2.49423
C          5.12834        0.76545        1.00620
N          5.83278        0.02243        1.88687
N          6.30105       -0.96940        1.11962
C          5.90204       -0.83006       -0.17244
N          5.18038        0.25967       -0.28309
C          6.22829       -1.78357       -1.30505
C          5.18321       -1.98554       -2.38384
C          6.41448       -1.20622       -2.69278
H          0.79106       -0.40380       -0.90130
H          0.31046       -0.43764        0.79563
H          1.99679       -0.14425        0.37766
H         -0.40339        1.68414       -0.16286
H          0.81713        1.94542        1.06639
H          0.07827        2.02868       -2.59306
H          1.65521        2.62229       -3.13169
H          1.47840        0.94555       -2.61533
H          1.24026        4.23233        0.22107
H          1.68758        4.51723       -1.46792
H          0.03921        4.02732       -1.05314
H          3.28423        1.18494       -0.98427
H          3.58023        2.85559       -1.44002
H          3.13753        3.45018        0.97442
H          6.86957       -1.69577        1.53822
H          6.83641       -2.64140       -1.03955
H          5.08370       -2.97553       -2.81332
H          4.24633       -1.44337       -2.30825
H          6.31580       -0.13398       -2.82628
H          7.15987       -1.66159       -3.33422

--Link1--
%chk=JID_7613.chk
%mem=8GB
%nprocshared=4
# B3LYP/6-311++G(d,p) empiricaldispersion=gd3bj scf=xqc pop=npa geom=check

CID_113818452_JID_7613_Energie_neutraal

0 1

--Link1--
%chk=JID_7613.chk
%mem=8GB
%nprocshared=4
# B3LYP/6-311++G(d,p) empiricaldispersion=gd3bj scf=xqc pop=npa geom=check

CID_113818452_JID_7613_Energie_kation

1 2

--Link1--
%chk=JID_7613.chk
%mem=8GB
%nprocshared=4
# B3LYP/6-311++G(d,p) empiricaldispersion=gd3bj scf=xqc pop=npa geom=check

CID_113818452_JID_7613_Energie_anion

-1 2
