%chk=JID_3991.chk
%mem=8GB
%nprocshared=4
# opt freq B3LYP/6-31G(d) empiricaldispersion=gd3bj scf=xqc

CID_104469462_JID_3991_neutraal

0 1
C          0.92197       -0.01883        0.05964
C          0.15271       -0.06290        1.37244
C          0.62727        0.98366        2.38394
C          0.40246        2.40120        1.95927
C          1.23983        3.47267        2.20429
S          0.57893        4.90691        1.54118
C         -0.77767        4.00992        0.98323
N         -0.75162        2.72289        1.26505
C         -1.87101        4.67319        0.20707
S         -3.15955        5.44687        1.24144
C         -3.70094        4.04867        2.28687
C         -4.80413        3.18084        1.68204
C         -4.34025        2.21588        0.60397
H          0.76744        0.92774       -0.46696
H          0.58621       -0.82574       -0.59956
H          1.99562       -0.14678        0.23069
H         -0.91785        0.05842        1.16846
H          0.27766       -1.05791        1.81629
H          0.09233        0.82603        3.32865
H          1.69229        0.82559        2.59474
H          2.18544        3.48135        2.72707
H         -1.45244        5.46005       -0.43096
H         -2.33157        3.95423       -0.47414
H         -2.85659        3.44464        2.62691
H         -4.11204        4.51530        3.18984
H         -5.23384        2.58147        2.49497
H         -5.62108        3.80286        1.29742
H         -3.45771        1.65401        0.92466
H         -5.13410        1.49461        0.38282
H         -4.11184        2.73581       -0.32873

--Link1--
%chk=JID_3991.chk
%mem=8GB
%nprocshared=4
# B3LYP/6-311++G(d,p) empiricaldispersion=gd3bj scf=xqc pop=npa geom=check

CID_104469462_JID_3991_Energie_neutraal

0 1

--Link1--
%chk=JID_3991.chk
%mem=8GB
%nprocshared=4
# B3LYP/6-311++G(d,p) empiricaldispersion=gd3bj scf=xqc pop=npa geom=check

CID_104469462_JID_3991_Energie_kation

1 2

--Link1--
%chk=JID_3991.chk
%mem=8GB
%nprocshared=4
# B3LYP/6-311++G(d,p) empiricaldispersion=gd3bj scf=xqc pop=npa geom=check

CID_104469462_JID_3991_Energie_anion

-1 2
