%chk=JID_2459.chk
%mem=8GB
%nprocshared=4
# opt freq B3LYP/6-31G(d) empiricaldispersion=gd3bj scf=xqc

CID_83905395_JID_2459_neutraal

0 1
C          0.96276       -0.08447        0.03845
C          0.34645       -0.50423        1.37428
C          1.04734        0.07110        2.63371
C          2.54008       -0.33135        2.74886
C          3.38785        0.85361        2.25902
C          2.46602        2.00124        2.50748
C          1.15675        1.56629        2.70920
C          0.17582        2.50136        2.95324
N          0.43044        3.82876        2.97738
C          1.71275        4.21881        2.75512
C          2.76603        3.34913        2.51498
N         -1.08694       -0.18493        1.33793
H          0.94195        1.00130       -0.10265
H          0.41690       -0.53604       -0.79854
H          1.99932       -0.42417       -0.04339
H          0.41764       -1.59759        1.43544
H          0.52682       -0.29927        3.52718
H          2.78335       -1.26138        2.22456
H          2.77127       -0.50503        3.80999
H          3.61698        0.77275        1.19250
H          4.31717        0.93649        2.83009
H         -0.85479        2.22322        3.14361
H          1.87318        5.29330        2.77785
H          3.76966        3.71734        2.34444
H         -1.51203       -0.35971        2.24674
H         -1.21821        0.80565        1.13385

--Link1--
%chk=JID_2459.chk
%mem=8GB
%nprocshared=4
# B3LYP/6-311++G(d,p) empiricaldispersion=gd3bj scf=xqc pop=npa geom=check

CID_83905395_JID_2459_Energie_neutraal

0 1

--Link1--
%chk=JID_2459.chk
%mem=8GB
%nprocshared=4
# B3LYP/6-311++G(d,p) empiricaldispersion=gd3bj scf=xqc pop=npa geom=check

CID_83905395_JID_2459_Energie_kation

1 2

--Link1--
%chk=JID_2459.chk
%mem=8GB
%nprocshared=4
# B3LYP/6-311++G(d,p) empiricaldispersion=gd3bj scf=xqc pop=npa geom=check

CID_83905395_JID_2459_Energie_anion

-1 2
