%chk=JID_3243.chk
%mem=8GB
%nprocshared=4
# opt freq B3LYP/6-31G(d) empiricaldispersion=gd3bj scf=xqc

CID_131050512_JID_3243_neutraal

0 1
C          1.05927        0.07384       -0.03218
C          0.71795       -1.27027       -0.61312
C         -0.11862       -2.10959        0.01988
C          1.39438       -1.65404       -1.91506
C          0.96617       -0.82026       -3.14229
N          1.50253        0.54447       -3.15320
C          2.97328        0.60728       -3.31382
C          3.37975        1.74111       -4.30180
C          2.82418        1.37662       -5.68990
C          1.31386        1.12812       -5.57989
C          0.85237        1.43764       -4.14260
C          1.31162        2.88858       -3.81242
N          2.78791        3.03952       -3.88922
H          0.69953        0.17393        0.99783
H          0.60350        0.87850       -0.61585
H          2.14415        0.21873       -0.01164
H         -0.35860       -3.08893       -0.38266
H         -0.59012       -1.83843        0.96007
H          2.48191       -1.61931       -1.77765
H          1.16688       -2.70442       -2.14276
H          1.27290       -1.35530       -4.04974
H         -0.13089       -0.78369       -3.15767
H          3.42308        0.79315       -2.33165
H          3.38154       -0.34050       -3.68750
H          4.46970        1.83645       -4.34380
H          3.02612        2.17806       -6.41113
H          3.31984        0.47676       -6.07341
H          1.07511        0.09667       -5.86192
H          0.78424        1.77308       -6.29166
H         -0.23900        1.38038       -4.06142
H          0.97293        3.16953       -2.80734
H          0.85397        3.59572       -4.51368
H          3.11796        3.24362       -2.94509

--Link1--
%chk=JID_3243.chk
%mem=8GB
%nprocshared=4
# B3LYP/6-311++G(d,p) empiricaldispersion=gd3bj scf=xqc pop=npa geom=check

CID_131050512_JID_3243_Energie_neutraal

0 1

--Link1--
%chk=JID_3243.chk
%mem=8GB
%nprocshared=4
# B3LYP/6-311++G(d,p) empiricaldispersion=gd3bj scf=xqc pop=npa geom=check

CID_131050512_JID_3243_Energie_kation

1 2

--Link1--
%chk=JID_3243.chk
%mem=8GB
%nprocshared=4
# B3LYP/6-311++G(d,p) empiricaldispersion=gd3bj scf=xqc pop=npa geom=check

CID_131050512_JID_3243_Energie_anion

-1 2
