%chk=JID_6460.chk
%mem=8GB
%nprocshared=4
# opt freq B3LYP/6-31G(d) empiricaldispersion=gd3bj scf=xqc

CID_53677155_JID_6460_neutraal

0 1
C          1.07442        0.00913       -0.06617
C          1.03495       -1.11378       -1.09129
C          1.35610       -2.49040       -0.50367
C          0.41384       -2.97377        0.60392
C         -1.06884       -3.04463        0.22501
C         -1.40166       -3.95038       -0.96497
C         -1.00367       -5.42181       -0.80605
C         -1.60601       -6.14333        0.40629
C         -3.13830       -6.16349        0.46242
C         -3.78453       -6.85150       -0.69586
C         -4.57350       -6.30240       -1.61745
C         -4.94858       -7.37378       -2.53824
O         -5.65961       -7.22479       -3.51455
O         -4.39659       -8.54369       -2.12492
C         -3.61084       -8.29530       -0.96908
O         -4.06427       -9.07658        0.11520
H          0.28209       -0.10032        0.68001
H          0.93161        0.97489       -0.56156
H          2.03812        0.03385        0.45220
H          0.05609       -1.12619       -1.58266
H          1.77027       -0.89460       -1.87504
H          1.36840       -3.22412       -1.31822
H          2.37694       -2.47226       -0.10123
H          0.75176       -3.96143        0.93962
H          0.51686       -2.31796        1.47685
H         -1.63572       -3.37451        1.10361
H         -1.43561       -2.03504        0.00488
H         -2.47869       -3.88397       -1.15804
H         -0.91979       -3.55720       -1.86796
H         -1.28439       -5.95614       -1.72196
H          0.08858       -5.49740       -0.74571
H         -1.22985       -7.17433        0.41440
H         -1.22908       -5.68467        1.32806
H         -3.44734       -6.66915        1.38578
H         -3.51647       -5.13791        0.54950
H         -4.90048       -5.28390       -1.72518
H         -2.57047       -8.55455       -1.18749
H         -4.90087       -8.68578        0.41366

--Link1--
%chk=JID_6460.chk
%mem=8GB
%nprocshared=4
# B3LYP/6-311++G(d,p) empiricaldispersion=gd3bj scf=xqc pop=npa geom=check

CID_53677155_JID_6460_Energie_neutraal

0 1

--Link1--
%chk=JID_6460.chk
%mem=8GB
%nprocshared=4
# B3LYP/6-311++G(d,p) empiricaldispersion=gd3bj scf=xqc pop=npa geom=check

CID_53677155_JID_6460_Energie_kation

1 2

--Link1--
%chk=JID_6460.chk
%mem=8GB
%nprocshared=4
# B3LYP/6-311++G(d,p) empiricaldispersion=gd3bj scf=xqc pop=npa geom=check

CID_53677155_JID_6460_Energie_anion

-1 2
