%chk=JID_10080.chk
%mem=8GB
%nprocshared=4
# opt freq B3LYP/6-31G(d) empiricaldispersion=gd3bj scf=xqc

CID_101190568_JID_10080_neutraal

0 1
C          0.99200        0.69300       -0.00200
C          0.19306        0.60911       -1.12006
N         -0.37060       -0.64148       -1.14277
C          0.02798       -1.34864       -0.03591
C          0.89851       -0.54575        0.67502
C         -0.35958       -2.69906        0.22175
C          0.48883       -3.78014        0.38781
C         -0.29940       -4.92725        0.62696
C         -1.61287       -4.52113        0.62236
N         -1.64733       -3.16369        0.38716
C         -2.89229       -2.41013        0.31725
C         -3.32517       -1.79007        1.65195
C         -2.91265       -0.32560        1.83281
C         -3.68585        0.63698        0.91986
C         -3.01338        2.00648        0.81230
C         -3.09393        2.83501        2.08979
S         -1.66001        3.88450        2.30512
O         -1.27007        4.45432        1.03524
O         -1.83008        4.68347        3.49569
O         -0.58594        2.72290        2.62951
H          1.60828        1.53916        0.27249
H          0.00108        1.31628       -1.91638
H         -0.95688       -1.00732       -1.88073
H          1.41465       -0.83072        1.58335
H          1.56925       -3.74290        0.32709
H          0.05286       -5.93762        0.78850
H         -2.52388       -5.08551        0.77365
H         -2.80459       -1.68212       -0.49161
H         -3.66125       -3.12551       -0.00179
H         -4.41820       -1.84576        1.72775
H         -2.92368       -2.37599        2.48812
H         -3.09841       -0.04633        2.87674
H         -1.83668       -0.22107        1.67818
H         -3.75622        0.22625       -0.09254
H         -4.71417        0.74773        1.28394
H         -1.97564        1.85990        0.49666
H         -3.49308        2.57220        0.00337
H         -3.96477        3.49839        2.05479
H         -3.17294        2.22910        2.99632
H         -0.00587        2.60525        1.84711

--Link1--
%chk=JID_10080.chk
%mem=8GB
%nprocshared=4
# B3LYP/6-311++G(d,p) empiricaldispersion=gd3bj scf=xqc pop=npa geom=check

CID_101190568_JID_10080_Energie_neutraal

0 1

--Link1--
%chk=JID_10080.chk
%mem=8GB
%nprocshared=4
# B3LYP/6-311++G(d,p) empiricaldispersion=gd3bj scf=xqc pop=npa geom=check

CID_101190568_JID_10080_Energie_kation

1 2

--Link1--
%chk=JID_10080.chk
%mem=8GB
%nprocshared=4
# B3LYP/6-311++G(d,p) empiricaldispersion=gd3bj scf=xqc pop=npa geom=check

CID_101190568_JID_10080_Energie_anion

-1 2
