%chk=JID_10547.chk
%mem=8GB
%nprocshared=4
# opt freq B3LYP/6-31G(d) empiricaldispersion=gd3bj scf=xqc

CID_75416631_JID_10547_neutraal

0 1
C          1.03697        0.01749        0.09125
C          0.77726        1.26870       -0.75122
C          1.24381        1.11324       -2.21254
C          0.54488        0.03429       -2.99614
C         -0.64046        0.20329       -3.68924
S         -1.16142       -1.22341       -4.47381
C          0.20101       -2.08993       -3.91800
C          1.03233       -1.30645       -3.14905
N         -0.63435        1.64299       -0.66598
C         -1.24555        2.41681        0.27809
O         -2.36522        2.05312        0.65302
C         -0.56444        3.63986        0.92517
C          0.30039        3.23193        2.11303
N          0.06950        4.51260       -0.07006
C          1.40069        4.68892       -0.29867
O          2.33688        4.16543        0.28654
C          1.58906        5.64961       -1.43451
C          0.19469        6.13890       -1.75276
C         -0.69395        5.31482       -0.87400
O         -1.91305        5.38958       -0.88472
H          0.41612       -0.82520       -0.23050
H          0.79934        0.20342        1.14432
H          2.08795       -0.28324        0.03167
H          1.37138        2.06384       -0.31193
H          1.10115        2.06955       -2.73407
H          2.32425        0.91864       -2.22548
H         -1.23692        1.10260       -3.77103
H          0.32899       -3.13055       -4.18305
H          1.94993       -1.68091       -2.71036
H         -1.27101        0.90801       -0.96104
H         -1.39468        4.23307        1.33552
H          1.13449        2.58499        1.83241
H          0.71149        4.11391        2.61544
H         -0.29632        2.67538        2.84458
H          2.24291        6.47194       -1.13102
H          2.03178        5.12389       -2.28585
H          0.07585        7.19732       -1.50198
H         -0.05810        5.97957       -2.80461

--Link1--
%chk=JID_10547.chk
%mem=8GB
%nprocshared=4
# B3LYP/6-311++G(d,p) empiricaldispersion=gd3bj scf=xqc pop=npa geom=check

CID_75416631_JID_10547_Energie_neutraal

0 1

--Link1--
%chk=JID_10547.chk
%mem=8GB
%nprocshared=4
# B3LYP/6-311++G(d,p) empiricaldispersion=gd3bj scf=xqc pop=npa geom=check

CID_75416631_JID_10547_Energie_kation

1 2

--Link1--
%chk=JID_10547.chk
%mem=8GB
%nprocshared=4
# B3LYP/6-311++G(d,p) empiricaldispersion=gd3bj scf=xqc pop=npa geom=check

CID_75416631_JID_10547_Energie_anion

-1 2
