%chk=JID_4377.chk
%mem=8GB
%nprocshared=4
# opt freq B3LYP/6-31G(d) empiricaldispersion=gd3bj scf=xqc

CID_20735624_JID_4377_neutraal

0 1
C          1.08249       -0.03006       -0.04787
C          0.80922       -1.45345       -0.35150
C          1.44203       -2.58657        0.13268
N          0.79086       -3.63699       -0.47652
C         -0.18735       -3.10472       -1.27183
N         -0.19783       -1.79453       -1.21947
C          1.06377       -5.06012       -0.31422
C          1.43575       -5.73764       -1.63779
C          1.69048       -7.22850       -1.42548
N          0.52674       -7.87236       -0.80381
C          0.21297       -7.28176        0.50306
C         -0.09742       -5.79283        0.36529
C          0.74793       -9.31379       -0.67406
C          2.56638       -2.73170        1.08852
H          0.87577        0.18191        1.00564
H          0.45577        0.62844       -0.65736
H          2.12954        0.21304       -0.25347
H         -0.86036       -3.71129       -1.86396
H          1.93561       -5.13882        0.34708
H          2.33098       -5.26785       -2.06347
H          0.63459       -5.61073       -2.37741
H          2.59048       -7.36831       -0.81228
H          1.88971       -7.68289       -2.40371
H         -0.66702       -7.77491        0.93372
H          1.04319       -7.42452        1.20734
H         -0.28611       -5.36330        1.35692
H         -1.02344       -5.66698       -0.21092
H          1.60212       -9.54412       -0.02712
H         -0.14061       -9.80394       -0.26079
H          0.92637       -9.76573       -1.65610
H          3.42306       -3.21347        0.60671
H          2.89826       -1.75763        1.46144
H          2.26485       -3.33231        1.95262

--Link1--
%chk=JID_4377.chk
%mem=8GB
%nprocshared=4
# B3LYP/6-311++G(d,p) empiricaldispersion=gd3bj scf=xqc pop=npa geom=check

CID_20735624_JID_4377_Energie_neutraal

0 1

--Link1--
%chk=JID_4377.chk
%mem=8GB
%nprocshared=4
# B3LYP/6-311++G(d,p) empiricaldispersion=gd3bj scf=xqc pop=npa geom=check

CID_20735624_JID_4377_Energie_kation

1 2

--Link1--
%chk=JID_4377.chk
%mem=8GB
%nprocshared=4
# B3LYP/6-311++G(d,p) empiricaldispersion=gd3bj scf=xqc pop=npa geom=check

CID_20735624_JID_4377_Energie_anion

-1 2
