%chk=JID_7846.chk
%mem=8GB
%nprocshared=4
# opt freq B3LYP/6-31G(d) empiricaldispersion=gd3bj scf=xqc

CID_79402971_JID_7846_neutraal

0 1
C         -2.56400       -0.27300        0.00000
C         -1.19355        0.14468       -0.37083
N         -0.44854       -0.74235       -1.03074
S          1.03806       -0.09057       -1.28840
C          0.75611        1.36403       -0.46140
C         -0.57681        1.41735       -0.08417
C         -1.16485        2.57892        0.55162
O         -0.58430        3.63774        0.75204
O         -2.45701        2.45007        0.91961
N          1.71007        2.34893       -0.31752
C          3.06729        2.25598       -0.20724
O          3.70898        3.31107       -0.12530
C          3.79411        0.91595       -0.09476
N          3.33921        0.18329        1.11058
C          3.93230       -1.15515        1.20385
C          5.44632       -1.02050        1.21005
C          6.74504       -0.90500        1.21536
H         -2.76244       -1.31347       -0.28078
H         -2.71443       -0.19516        1.08147
H         -3.30823        0.34951       -0.50677
H         -2.67101        3.32185        1.31336
H          1.36926        3.27928       -0.08253
H          3.68099        0.34576       -1.01969
H          4.86027        1.15980       -0.01127
H          3.62972        0.71909        1.93002
H          3.60265       -1.63841        2.12899
H          3.61370       -1.78175        0.36428
H          7.80636       -0.80818        1.21986

--Link1--
%chk=JID_7846.chk
%mem=8GB
%nprocshared=4
# B3LYP/6-311++G(d,p) empiricaldispersion=gd3bj scf=xqc pop=npa geom=check

CID_79402971_JID_7846_Energie_neutraal

0 1

--Link1--
%chk=JID_7846.chk
%mem=8GB
%nprocshared=4
# B3LYP/6-311++G(d,p) empiricaldispersion=gd3bj scf=xqc pop=npa geom=check

CID_79402971_JID_7846_Energie_kation

1 2

--Link1--
%chk=JID_7846.chk
%mem=8GB
%nprocshared=4
# B3LYP/6-311++G(d,p) empiricaldispersion=gd3bj scf=xqc pop=npa geom=check

CID_79402971_JID_7846_Energie_anion

-1 2
