%chk=JID_8485.chk
%mem=8GB
%nprocshared=4
# opt freq B3LYP/6-31G(d) empiricaldispersion=gd3bj scf=xqc

CID_79418638_JID_8485_neutraal

0 1
C          1.07063        0.07037       -0.00774
C          0.57090       -1.21903       -0.67563
C          0.99800       -2.41770        0.19958
O          0.35240       -2.34303        1.47064
C          0.81674       -3.35135        2.35827
C         -0.96641       -1.18937       -0.90947
C         -1.53559        0.09798       -1.55114
C         -0.93534        0.67402       -2.81802
C         -0.33070       -0.09123       -3.81742
C          0.15413        0.51062       -4.98503
C          0.02756        1.88393       -5.19216
C         -0.58434        2.65789       -4.21126
C         -1.06403        2.05637       -3.04094
O          0.53352        2.33611       -6.37900
C          0.32809        3.71046       -6.68089
C         -1.53257       -2.39512       -1.63508
O         -2.71338       -2.70560       -1.67609
O         -0.63510       -3.13408       -2.31131
H          0.52059        0.28531        0.91459
H          0.96680        0.93264       -0.67236
H          2.13405       -0.00802        0.24398
H          1.09159       -1.32029       -1.63500
H          0.74321       -3.37098       -0.27330
H          2.08594       -2.39858        0.34065
H          0.63528       -4.34588        1.94009
H          1.88316       -3.21619        2.56325
H          0.26753       -3.26060        3.29921
H         -1.43344       -1.25126        0.08513
H         -2.60611       -0.04448       -1.75396
H         -1.48924        0.87906       -0.77888
H         -0.21988       -1.16515       -3.72567
H          0.62686       -0.10430       -5.74732
H         -0.71030        3.72939       -4.32195
H         -1.55108        2.68487       -2.29689
H         -0.73934        3.95277       -6.71820
H          0.85532        4.35347       -5.96861
H          0.74665        3.90079       -7.67395
H         -1.18359       -3.83683       -2.72152

--Link1--
%chk=JID_8485.chk
%mem=8GB
%nprocshared=4
# B3LYP/6-311++G(d,p) empiricaldispersion=gd3bj scf=xqc pop=npa geom=check

CID_79418638_JID_8485_Energie_neutraal

0 1

--Link1--
%chk=JID_8485.chk
%mem=8GB
%nprocshared=4
# B3LYP/6-311++G(d,p) empiricaldispersion=gd3bj scf=xqc pop=npa geom=check

CID_79418638_JID_8485_Energie_kation

1 2

--Link1--
%chk=JID_8485.chk
%mem=8GB
%nprocshared=4
# B3LYP/6-311++G(d,p) empiricaldispersion=gd3bj scf=xqc pop=npa geom=check

CID_79418638_JID_8485_Energie_anion

-1 2
