%chk=JID_8707.chk
%mem=8GB
%nprocshared=4
# opt freq B3LYP/6-31G(d) empiricaldispersion=gd3bj scf=xqc

CID_3107824_JID_8707_neutraal

0 1
C          0.95273        0.06024        0.06432
C          0.95630        1.52557       -0.34428
C          0.81865        1.74163       -1.85628
C         -0.58890        2.09355       -2.36993
C         -1.13489        3.43547       -1.81788
C         -2.37469        3.87247       -2.63787
C         -2.94483        2.64737       -3.40619
C         -3.06911        1.54251       -2.33054
C         -1.65930        0.93829       -2.19779
C         -1.55052       -0.08036       -3.36023
C         -1.98900        0.60910       -4.67787
C         -1.93029        2.13792       -4.49822
C         -0.56083        2.35466       -3.88434
O          0.43360        2.66383       -4.52742
O         -4.27096        2.87420       -3.91343
C         -4.47517        3.85850       -4.82801
O         -3.61909        4.59668       -5.28832
C         -5.92708        3.91684       -5.19290
H          1.73526       -0.49509       -0.46299
H         -0.00274       -0.42645       -0.13703
H          1.14842       -0.02773        1.13810
H          0.18881        2.06761        0.21548
H          1.92061        1.94501       -0.02964
H          1.48797        2.57201       -2.12298
H          1.21427        0.87437       -2.39995
H         -1.41663        3.32792       -0.76398
H         -0.37618        4.22620       -1.86616
H         -3.13097        4.31516       -1.97822
H         -2.08612        4.66653       -3.33624
H         -3.81703        0.78667       -2.60369
H         -3.41623        1.95459       -1.37417
H         -1.57425        0.43556       -1.23386
H         -0.52360       -0.45360       -3.44773
H         -2.18810       -0.95291       -3.17551
H         -1.32787        0.28507       -5.49054
H         -3.00598        0.30237       -4.94897
H         -2.02192        2.66427       -5.45013
H         -6.24927        2.95054       -5.58925
H         -6.51819        4.18930       -4.31503
H         -6.07638        4.67558       -5.96626

--Link1--
%chk=JID_8707.chk
%mem=8GB
%nprocshared=4
# B3LYP/6-311++G(d,p) empiricaldispersion=gd3bj scf=xqc pop=npa geom=check

CID_3107824_JID_8707_Energie_neutraal

0 1

--Link1--
%chk=JID_8707.chk
%mem=8GB
%nprocshared=4
# B3LYP/6-311++G(d,p) empiricaldispersion=gd3bj scf=xqc pop=npa geom=check

CID_3107824_JID_8707_Energie_kation

1 2

--Link1--
%chk=JID_8707.chk
%mem=8GB
%nprocshared=4
# B3LYP/6-311++G(d,p) empiricaldispersion=gd3bj scf=xqc pop=npa geom=check

CID_3107824_JID_8707_Energie_anion

-1 2
