%chk=JID_3795.chk
%mem=8GB
%nprocshared=4
# opt freq B3LYP/6-31G(d) empiricaldispersion=gd3bj scf=xqc

CID_68047016_JID_3795_neutraal

0 1
C          0.95294       -0.08802        0.00615
C          0.58763       -1.51175       -0.27871
C          1.43318       -2.55812        0.10035
C          0.98102       -3.84766       -0.18207
C         -0.24788       -4.06741       -0.79423
C         -0.40954       -5.46439       -0.94046
C          0.71410       -6.08104       -0.41861
N          1.54539       -5.08094        0.03930
C          1.05854       -7.53936       -0.31921
C          2.32986       -7.86670       -1.10274
C          1.18552       -7.98231        1.13844
N         -1.08728       -3.06789       -1.15402
C         -0.63364       -1.82585       -0.87463
H          0.54876        0.21586        0.97665
H          0.55739        0.57843       -0.76755
H          2.04024        0.04173        0.02107
H          2.38682       -2.38092        0.58432
H         -1.26299       -5.95986       -1.38212
H          2.44512       -5.22800        0.47515
H          0.23675       -8.11272       -0.76872
H          3.20609       -7.35714       -0.68635
H          2.52886       -8.94361       -1.08402
H          2.23432       -7.56112       -2.15070
H          0.26800       -7.76334        1.69609
H          1.36651       -9.06077        1.20046
H          2.01265       -7.47391        1.64656
H         -1.32343       -1.03456       -1.16151

--Link1--
%chk=JID_3795.chk
%mem=8GB
%nprocshared=4
# B3LYP/6-311++G(d,p) empiricaldispersion=gd3bj scf=xqc pop=npa geom=check

CID_68047016_JID_3795_Energie_neutraal

0 1

--Link1--
%chk=JID_3795.chk
%mem=8GB
%nprocshared=4
# B3LYP/6-311++G(d,p) empiricaldispersion=gd3bj scf=xqc pop=npa geom=check

CID_68047016_JID_3795_Energie_kation

1 2

--Link1--
%chk=JID_3795.chk
%mem=8GB
%nprocshared=4
# B3LYP/6-311++G(d,p) empiricaldispersion=gd3bj scf=xqc pop=npa geom=check

CID_68047016_JID_3795_Energie_anion

-1 2
