%chk=JID_5354.chk
%mem=8GB
%nprocshared=4
# opt freq B3LYP/6-31G(d) empiricaldispersion=gd3bj scf=xqc

CID_107578910_JID_5354_neutraal

0 1
C          0.93755        0.01747        0.07612
C          0.65569       -1.22355       -0.71836
C          1.07658       -2.46990       -0.24323
C          0.84886       -3.62246       -0.99695
C          0.19023       -3.54061       -2.22860
C         -0.25308       -2.30778       -2.71138
C          0.00837       -1.15220       -1.96026
N         -0.91133       -2.12879       -3.94292
C         -1.49264       -2.99820       -4.80431
O         -1.83489       -2.64321       -5.92816
N         -1.75391       -4.25049       -4.38125
C          1.30536       -4.89023       -0.51503
C          1.69036       -5.95344       -0.10961
C          2.16350       -7.24605        0.38337
O          3.13991       -7.05008        1.39643
H          0.67654       -0.13532        1.12853
H          0.34907        0.86633       -0.28730
H          1.99848        0.27609        0.00311
H          1.59326       -2.54105        0.71213
H          0.08264       -4.44806       -2.81354
H         -0.30942       -0.18042       -2.33341
H         -0.94952       -1.18218       -4.30157
H         -2.07016       -4.32965       -3.42485
H         -2.30568       -4.78072       -5.04381
H          1.34171       -7.82735        0.81118
H          2.61432       -7.83508       -0.42095
H          3.80398       -6.44265        1.02846

--Link1--
%chk=JID_5354.chk
%mem=8GB
%nprocshared=4
# B3LYP/6-311++G(d,p) empiricaldispersion=gd3bj scf=xqc pop=npa geom=check

CID_107578910_JID_5354_Energie_neutraal

0 1

--Link1--
%chk=JID_5354.chk
%mem=8GB
%nprocshared=4
# B3LYP/6-311++G(d,p) empiricaldispersion=gd3bj scf=xqc pop=npa geom=check

CID_107578910_JID_5354_Energie_kation

1 2

--Link1--
%chk=JID_5354.chk
%mem=8GB
%nprocshared=4
# B3LYP/6-311++G(d,p) empiricaldispersion=gd3bj scf=xqc pop=npa geom=check

CID_107578910_JID_5354_Energie_anion

-1 2
