%chk=JID_1532.chk
%mem=8GB
%nprocshared=4
# opt freq B3LYP/6-31G(d) empiricaldispersion=gd3bj scf=xqc

CID_58136558_JID_1532_neutraal

0 1
C          0.99090       -0.09878        0.01266
C          0.13097        0.85230        0.84869
C          0.49650        2.30149        0.52391
C         -1.36716        0.62008        0.60633
C         -1.84648       -0.65604        1.24656
N         -1.98138       -1.74822        0.56501
N         -2.40237       -2.86746        1.20503
C         -2.71317       -2.93631        2.53480
O         -3.08782       -3.97682        3.06926
C         -2.56526       -1.62926        3.28281
O         -2.08342       -0.49934        2.56867
H          0.79000        0.01964       -1.05754
H          0.80222       -1.14290        0.28082
H          2.05608        0.09486        0.17914
H          0.36060        0.67417        1.90701
H          0.28734        2.53911       -0.52467
H         -0.07392        2.99593        1.14986
H          1.56030        2.48550        0.70810
H         -1.95749        1.44291        1.02862
H         -1.59135        0.58917       -0.46662
H         -2.48724       -3.71308        0.65026
H         -3.54646       -1.36544        3.69117
H         -1.88180       -1.80105        4.12080

--Link1--
%chk=JID_1532.chk
%mem=8GB
%nprocshared=4
# B3LYP/6-311++G(d,p) empiricaldispersion=gd3bj scf=xqc pop=npa geom=check

CID_58136558_JID_1532_Energie_neutraal

0 1

--Link1--
%chk=JID_1532.chk
%mem=8GB
%nprocshared=4
# B3LYP/6-311++G(d,p) empiricaldispersion=gd3bj scf=xqc pop=npa geom=check

CID_58136558_JID_1532_Energie_kation

1 2

--Link1--
%chk=JID_1532.chk
%mem=8GB
%nprocshared=4
# B3LYP/6-311++G(d,p) empiricaldispersion=gd3bj scf=xqc pop=npa geom=check

CID_58136558_JID_1532_Energie_anion

-1 2
