%chk=JID_7403.chk
%mem=8GB
%nprocshared=4
# opt freq B3LYP/6-31G(d) empiricaldispersion=gd3bj scf=xqc

CID_64174739_JID_7403_neutraal

0 1
C          0.78100       -1.26600       -0.21900
C          1.78083       -0.18104        0.16596
C          1.29470        1.19874       -0.30694
C         -0.14418        1.41848        0.19314
O         -1.01331        0.36863       -0.24935
C         -0.61857       -0.90423        0.26086
N          2.20042        2.23206        0.20947
C          2.52027        3.35114       -0.56297
C          3.64712        4.10651       -0.21055
C          4.00860        5.27288       -0.91395
C          3.21260        5.73081       -1.98007
C          2.07268        5.00855       -2.29164
C          1.71822        3.84610       -1.59131
N          3.51706        6.83442       -2.68717
C          4.63228        7.51651       -2.34636
C          5.47482        7.15019       -1.31442
C          5.15486        6.01076       -0.58671
H          0.77330       -1.36423       -1.31148
H          1.08808       -2.23068        0.19832
H          1.91323       -0.18117        1.25611
H          2.76209       -0.40653       -0.26876
H          1.30176        1.16839       -1.40451
H         -0.18324        1.48219        1.28809
H         -0.54806        2.35966       -0.19261
H         -1.33880       -1.64603       -0.09856
H         -0.67428       -0.89163        1.35569
H          3.01969        1.85281        0.67866
H          4.26521        3.78079        0.62315
H          1.43459        5.35943       -3.09910
H          0.79873        3.34778       -1.88207
H          4.83492        8.39765       -2.94848
H          6.35715        7.73540       -1.08304
H          5.80058        5.69959        0.23008

--Link1--
%chk=JID_7403.chk
%mem=8GB
%nprocshared=4
# B3LYP/6-311++G(d,p) empiricaldispersion=gd3bj scf=xqc pop=npa geom=check

CID_64174739_JID_7403_Energie_neutraal

0 1

--Link1--
%chk=JID_7403.chk
%mem=8GB
%nprocshared=4
# B3LYP/6-311++G(d,p) empiricaldispersion=gd3bj scf=xqc pop=npa geom=check

CID_64174739_JID_7403_Energie_kation

1 2

--Link1--
%chk=JID_7403.chk
%mem=8GB
%nprocshared=4
# B3LYP/6-311++G(d,p) empiricaldispersion=gd3bj scf=xqc pop=npa geom=check

CID_64174739_JID_7403_Energie_anion

-1 2
