%chk=JID_8499.chk
%mem=8GB
%nprocshared=4
# opt freq B3LYP/6-31G(d) empiricaldispersion=gd3bj scf=xqc

CID_82478167_JID_8499_neutraal

0 1
C         -0.72000        1.26100        0.22400
C         -1.32494       -0.01492       -0.36538
C         -0.42152       -1.23871       -0.08500
C          0.97781       -0.90324       -0.61961
N          1.56431        0.30278       -0.02089
C          0.71223        1.47325       -0.26200
C         -0.56489       -1.66298        1.36225
N         -1.74688       -1.70857        1.96273
N         -1.58678       -2.11577        3.25662
C         -0.31232       -2.34191        3.43347
N          0.37024       -2.11401        2.26769
C          1.79552       -2.35278        2.14950
C          2.15098       -3.60027        1.38357
C          3.40325       -3.68440        0.77635
N          3.84901       -4.75672        0.08541
C          3.01733       -5.81562        0.00432
C          1.76285       -5.84953        0.58668
C          1.32880       -4.72908        1.29139
H         -1.33462        2.12248       -0.06123
H         -0.73506        1.21048        1.31965
H         -2.33959       -0.15939        0.02353
H         -1.42788        0.11167       -1.45137
H         -0.80826       -2.07810       -0.67932
H          1.65968       -1.74313       -0.48888
H          0.91909       -0.75859       -1.70749
H          2.47464        0.47892       -0.44904
H          0.70954        1.71192       -1.33284
H          1.14468        2.33671        0.25506
H          0.15068       -2.68085        4.34954
H          2.25203       -1.45973        1.72083
H          2.20297       -2.44892        3.16414
H          4.11128       -2.85975        0.82370
H          3.39911       -6.66498       -0.55501
H          1.13576       -6.73012        0.49763
H          0.34540       -4.75703        1.75674

--Link1--
%chk=JID_8499.chk
%mem=8GB
%nprocshared=4
# B3LYP/6-311++G(d,p) empiricaldispersion=gd3bj scf=xqc pop=npa geom=check

CID_82478167_JID_8499_Energie_neutraal

0 1

--Link1--
%chk=JID_8499.chk
%mem=8GB
%nprocshared=4
# B3LYP/6-311++G(d,p) empiricaldispersion=gd3bj scf=xqc pop=npa geom=check

CID_82478167_JID_8499_Energie_kation

1 2

--Link1--
%chk=JID_8499.chk
%mem=8GB
%nprocshared=4
# B3LYP/6-311++G(d,p) empiricaldispersion=gd3bj scf=xqc pop=npa geom=check

CID_82478167_JID_8499_Energie_anion

-1 2
