%chk=JID_8410.chk
%mem=8GB
%nprocshared=4
# opt freq B3LYP/6-31G(d) empiricaldispersion=gd3bj scf=xqc

CID_109879675_JID_8410_neutraal

0 1
C          1.07461       -0.05699        0.03444
C         -0.13795        0.01415        0.96459
C         -1.04019        1.21227        0.63285
C         -1.85601        1.00306       -0.64146
C         -2.66712       -0.29645       -0.56014
C         -1.74739       -1.48147       -0.24019
N         -0.91658       -1.23665        0.93862
C         -0.76477       -2.28067        1.86119
O         -1.40769       -3.32906        1.80948
C          0.16039       -2.10065        3.00903
C         -0.38286       -1.89159        4.26884
C          0.49408       -1.74702        5.33604
C          1.86510       -1.84704        5.10894
C          2.32429       -2.07766        3.81257
N          1.49191       -2.18258        2.75103
C          3.79277       -2.24626        3.55780
C         -3.44164       -0.52740       -1.86129
O         -4.40451       -1.56220       -1.71381
H          1.66792        0.86090        0.10221
H          0.78647       -0.19410       -1.01230
H          1.72418       -0.89662        0.30141
H          0.24300        0.17901        1.97755
H         -1.73719        1.36817        1.46699
H         -0.44415        2.12828        0.54719
H         -1.19221        0.98355       -1.51403
H         -2.53155        1.85591       -0.77887
H         -3.38911       -0.20531        0.26327
H         -1.06984       -1.68603       -1.07794
H         -2.34869       -2.38504       -0.09804
H         -1.45707       -1.84604        4.40919
H          0.11423       -1.57590        6.33937
H          2.56283       -1.76138        5.93669
H          4.18098       -3.08771        4.14115
H          3.98442       -2.45157        2.49977
H          4.33375       -1.33680        3.83547
H         -3.98961        0.37846       -2.14084
H         -2.77521       -0.78195       -2.69259
H         -3.93833       -2.41110       -1.62567

--Link1--
%chk=JID_8410.chk
%mem=8GB
%nprocshared=4
# B3LYP/6-311++G(d,p) empiricaldispersion=gd3bj scf=xqc pop=npa geom=check

CID_109879675_JID_8410_Energie_neutraal

0 1

--Link1--
%chk=JID_8410.chk
%mem=8GB
%nprocshared=4
# B3LYP/6-311++G(d,p) empiricaldispersion=gd3bj scf=xqc pop=npa geom=check

CID_109879675_JID_8410_Energie_kation

1 2

--Link1--
%chk=JID_8410.chk
%mem=8GB
%nprocshared=4
# B3LYP/6-311++G(d,p) empiricaldispersion=gd3bj scf=xqc pop=npa geom=check

CID_109879675_JID_8410_Energie_anion

-1 2
