%chk=JID_8575.chk
%mem=8GB
%nprocshared=4
# opt freq B3LYP/6-31G(d) empiricaldispersion=gd3bj scf=xqc

CID_63994223_JID_8575_neutraal

0 1
C          0.92749       -0.05583        0.04031
C          0.54729       -0.09837        1.51315
C          0.91749        1.18568        2.27846
C          0.16062        2.44818        1.81533
C         -1.33456        2.38527        1.98141
C         -2.19405        3.39117        1.25722
C         -2.23456        1.94443        0.85543
N          0.73333        0.96856        3.72124
C          1.60308        0.34324        4.58168
O          1.18141       -0.22803        5.58251
C          3.05220        0.35780        4.31122
C          3.71393        1.55102        4.02552
C          5.08310        1.51876        3.79901
N          5.77682        0.36280        3.84808
C          5.11714       -0.77442        4.16517
C          3.76308       -0.83033        4.41290
N          5.72325        2.72448        3.46209
C          7.16212        2.60747        3.28448
H          0.37702        0.71791       -0.50055
H          0.70084       -1.01664       -0.43297
H          1.99852        0.13506       -0.08122
H         -0.52321       -0.31164        1.61309
H          1.06632       -0.95165        1.96869
H          1.97939        1.37093        2.09479
H          0.52119        3.30257        2.40312
H          0.41772        2.66795        0.77222
H         -1.63407        2.15965        2.99857
H         -3.05245        3.79682        1.78140
H         -1.72048        4.09272        0.57954
H         -1.79988        1.67948       -0.10092
H         -3.11969        1.37154        1.10949
H         -0.22277        0.83041        4.02779
H          3.16953        2.48733        3.97450
H          5.73421       -1.66701        4.21547
H          3.27590       -1.76332        4.67224
H          5.48716        3.43002        4.15416
H          7.56858        3.59067        3.02626
H          7.65649        2.27638        4.20443
H          7.41216        1.92612        2.46389

--Link1--
%chk=JID_8575.chk
%mem=8GB
%nprocshared=4
# B3LYP/6-311++G(d,p) empiricaldispersion=gd3bj scf=xqc pop=npa geom=check

CID_63994223_JID_8575_Energie_neutraal

0 1

--Link1--
%chk=JID_8575.chk
%mem=8GB
%nprocshared=4
# B3LYP/6-311++G(d,p) empiricaldispersion=gd3bj scf=xqc pop=npa geom=check

CID_63994223_JID_8575_Energie_kation

1 2

--Link1--
%chk=JID_8575.chk
%mem=8GB
%nprocshared=4
# B3LYP/6-311++G(d,p) empiricaldispersion=gd3bj scf=xqc pop=npa geom=check

CID_63994223_JID_8575_Energie_anion

-1 2
