%chk=JID_3623.chk
%mem=8GB
%nprocshared=4
# opt freq B3LYP/6-31G(d) empiricaldispersion=gd3bj scf=xqc

CID_147605437_JID_3623_neutraal

0 1
C          0.96017       -0.04537        0.07972
C          0.59782       -0.10369        1.55668
C          1.23381        0.98134        2.39939
C          0.44608        1.95103        2.90625
C          2.72520        0.97859        2.72167
C          3.34886       -0.31547        3.28153
C          3.69420       -1.45492        2.32340
N          4.75217       -1.09195        1.39972
C          5.30082       -1.90733        0.42589
C          6.35203       -1.50510       -0.30318
C          4.70050       -3.27162        0.19202
C          3.52878        1.58687        1.58292
N          4.34184        2.58374        1.74000
H          0.83514        0.96410       -0.32517
H          0.31165       -0.71954       -0.48986
H          1.98944       -0.36834       -0.09536
H         -0.49608       -0.02454        1.62252
H          0.82494       -1.08922        1.97283
H          0.84129        2.75161        3.52520
H         -0.62246        1.98253        2.71063
H          2.84554        1.68822        3.55628
H          4.27416       -0.03699        3.80621
H          2.67676       -0.71389        4.05317
H          4.03346       -2.30683        2.92545
H          2.81472       -1.78886        1.77107
H          5.35835       -0.31977        1.67691
H          6.78901       -2.13670       -1.06966
H          6.79626       -0.52467       -0.16591
H          4.77552       -3.88133        1.09886
H          3.64575       -3.18626       -0.08816
H          5.21136       -3.81598       -0.60975
H          3.45084        1.13212        0.58424
H          4.33540        2.91718        2.70924

--Link1--
%chk=JID_3623.chk
%mem=8GB
%nprocshared=4
# B3LYP/6-311++G(d,p) empiricaldispersion=gd3bj scf=xqc pop=npa geom=check

CID_147605437_JID_3623_Energie_neutraal

0 1

--Link1--
%chk=JID_3623.chk
%mem=8GB
%nprocshared=4
# B3LYP/6-311++G(d,p) empiricaldispersion=gd3bj scf=xqc pop=npa geom=check

CID_147605437_JID_3623_Energie_kation

1 2

--Link1--
%chk=JID_3623.chk
%mem=8GB
%nprocshared=4
# B3LYP/6-311++G(d,p) empiricaldispersion=gd3bj scf=xqc pop=npa geom=check

CID_147605437_JID_3623_Energie_anion

-1 2
