%chk=JID_8330.chk
%mem=8GB
%nprocshared=4
# opt freq B3LYP/6-31G(d) empiricaldispersion=gd3bj scf=xqc

CID_105857657_JID_8330_neutraal

0 1
C          1.04387        0.04744        0.07632
C          0.63459       -0.93277       -0.96813
C          0.69000       -2.31123       -0.92639
C          0.20403       -2.93700       -2.12545
C          0.05993       -4.26843       -2.55649
N         -0.47218       -4.50008       -3.77826
C         -0.85392       -3.47395       -4.54365
N         -0.73365       -2.18757       -4.24559
C         -0.21338       -1.97245       -3.02885
S         -0.00281       -0.38246       -2.45368
N         -1.37340       -3.78520       -5.78532
N          0.41295       -5.42607       -1.84651
C          1.42649       -5.56055       -0.85706
C          0.85778       -5.65989        0.57983
C          1.90111       -6.77458        0.83599
C          1.88739       -7.03095       -0.68865
O          1.57925       -7.87602        1.71179
C          0.25498       -8.38629        1.72441
H          1.39896       -0.46579        0.97614
H          0.20093        0.68379        0.36525
H          1.85573        0.68555       -0.28788
H          1.06264       -2.84761       -0.06551
H         -1.24013       -3.00762       -6.41694
H         -1.03779       -4.68998       -6.08271
H          0.31595       -6.20564       -2.49432
H          2.26555       -4.86652       -0.98187
H          0.98584       -4.77068        1.20277
H         -0.19117       -5.97095        0.63405
H          2.86448       -6.35147        1.15408
H          1.17139       -7.79210       -1.01826
H          2.86244       -7.26102       -1.12852
H         -0.41421       -7.67722        2.21898
H         -0.09803       -8.59914        0.71249
H          0.25227       -9.31830        2.29602

--Link1--
%chk=JID_8330.chk
%mem=8GB
%nprocshared=4
# B3LYP/6-311++G(d,p) empiricaldispersion=gd3bj scf=xqc pop=npa geom=check

CID_105857657_JID_8330_Energie_neutraal

0 1

--Link1--
%chk=JID_8330.chk
%mem=8GB
%nprocshared=4
# B3LYP/6-311++G(d,p) empiricaldispersion=gd3bj scf=xqc pop=npa geom=check

CID_105857657_JID_8330_Energie_kation

1 2

--Link1--
%chk=JID_8330.chk
%mem=8GB
%nprocshared=4
# B3LYP/6-311++G(d,p) empiricaldispersion=gd3bj scf=xqc pop=npa geom=check

CID_105857657_JID_8330_Energie_anion

-1 2
