%chk=JID_8151.chk
%mem=8GB
%nprocshared=4
# opt freq B3LYP/6-31G(d) empiricaldispersion=gd3bj scf=xqc

CID_114805357_JID_8151_neutraal

0 1
C          0.99437       -0.09844        0.01665
C          1.34922        0.24623       -1.43417
C          1.11387       -0.95866       -2.35236
C          0.44416        1.40430       -1.89176
N          2.75074        0.73086       -1.59958
S          4.04373        0.07408       -0.75905
O          3.79659       -1.34168       -0.64562
O          5.20685        0.54963       -1.47049
N          3.91678        0.86024        0.63099
C          4.05134        0.42806        1.94026
C          3.80444        1.27713        3.01093
C          3.97812        0.47416        4.15282
N          4.32589       -0.77372        3.84772
N          4.40711       -0.77959        2.49980
C          4.88730       -1.99134        1.88036
C          3.43710        2.66780        2.98482
O          3.22401        3.36645        3.96182
O          3.33838        3.19427        1.73657
H         -0.06962       -0.34810        0.10607
H          1.18629        0.74748        0.68541
H          1.54926       -0.96172        0.39381
H          0.06491       -1.27485       -2.32634
H          1.36498       -0.72026       -3.39246
H          1.72271       -1.81976       -2.06120
H          0.60031        2.29498       -1.27153
H          0.65548        1.69004       -2.92890
H         -0.61549        1.13216       -1.82873
H          3.02500        0.85242       -2.57850
H          3.68429        1.83914        0.50703
H          3.86339        0.75118        5.19531
H          5.41584       -2.59217        2.62665
H          4.02652       -2.55380        1.51343
H          5.58896       -1.73316        1.08562
H          3.10776        4.13375        1.93067

--Link1--
%chk=JID_8151.chk
%mem=8GB
%nprocshared=4
# B3LYP/6-311++G(d,p) empiricaldispersion=gd3bj scf=xqc pop=npa geom=check

CID_114805357_JID_8151_Energie_neutraal

0 1

--Link1--
%chk=JID_8151.chk
%mem=8GB
%nprocshared=4
# B3LYP/6-311++G(d,p) empiricaldispersion=gd3bj scf=xqc pop=npa geom=check

CID_114805357_JID_8151_Energie_kation

1 2

--Link1--
%chk=JID_8151.chk
%mem=8GB
%nprocshared=4
# B3LYP/6-311++G(d,p) empiricaldispersion=gd3bj scf=xqc pop=npa geom=check

CID_114805357_JID_8151_Energie_anion

-1 2
