%chk=JID_10523.chk
%mem=8GB
%nprocshared=4
# opt freq B3LYP/6-31G(d) empiricaldispersion=gd3bj scf=xqc

CID_105853904_JID_10523_neutraal

0 1
C          1.03547        0.09185       -0.01751
O          1.76179        0.17860       -1.23437
C          2.19322        1.46925       -1.71442
C          1.12026        2.52527       -2.06368
C          2.12452        3.60432       -1.58906
C          2.77512        2.49969       -0.71931
N          1.58598        4.78046       -0.86895
S          0.45451        5.89112       -1.41573
O         -0.67584        5.16909       -1.95211
O          0.31186        6.87130       -0.36262
C          1.31170        6.65840       -2.76974
C          2.05202        7.82712       -2.54375
C          2.72951        8.46496       -3.59381
C          2.55575        7.94175       -4.89337
C          1.79997        6.77644       -5.12394
C          1.17612        6.13315       -4.05639
N          3.18221        8.58617       -6.05088
O          2.62879        8.44950       -7.15170
O          4.24532        9.20040       -5.86737
N          3.32421        9.70958       -3.32656
H          0.66639       -0.93196        0.08790
H          0.17866        0.76926       -0.01643
H          1.69236        0.30854        0.82882
H          2.87529        1.30954       -2.56155
H          0.84926        2.58059       -3.12205
H          0.20112        2.46783       -1.47178
H          2.79603        3.93023       -2.39499
H          2.38136        2.44721        0.30111
H          3.86735        2.53333       -0.66998
H          2.03484        5.07401       -0.00131
H          2.08977        8.25337       -1.54220
H          1.67962        6.37549       -6.12935
H          0.57261        5.24500       -4.23593
H          3.65862        9.83699       -2.37553
H          4.03102        9.98832       -4.01383

--Link1--
%chk=JID_10523.chk
%mem=8GB
%nprocshared=4
# B3LYP/6-311++G(d,p) empiricaldispersion=gd3bj scf=xqc pop=npa geom=check

CID_105853904_JID_10523_Energie_neutraal

0 1

--Link1--
%chk=JID_10523.chk
%mem=8GB
%nprocshared=4
# B3LYP/6-311++G(d,p) empiricaldispersion=gd3bj scf=xqc pop=npa geom=check

CID_105853904_JID_10523_Energie_kation

1 2

--Link1--
%chk=JID_10523.chk
%mem=8GB
%nprocshared=4
# B3LYP/6-311++G(d,p) empiricaldispersion=gd3bj scf=xqc pop=npa geom=check

CID_105853904_JID_10523_Energie_anion

-1 2
