%chk=JID_2074.chk
%mem=8GB
%nprocshared=4
# opt freq B3LYP/6-31G(d) empiricaldispersion=gd3bj scf=xqc

CID_43544320_JID_2074_neutraal

0 1
C          1.06900        0.05572        0.04619
C          0.24646       -1.18260       -0.30735
C          1.03516       -2.21978       -1.13493
N          2.09559       -2.88774       -0.34493
C          1.46267       -3.51638        0.84842
C          0.66464       -2.46047        1.65658
O         -0.32033       -1.78930        0.86267
C          2.47022       -4.17644        1.79714
C          2.94356       -3.80718       -1.15596
C          2.19101       -4.92786       -1.88362
C          3.83450       -3.02724       -2.17096
N          4.55700       -1.93107       -1.51744
H          0.48490        0.73170        0.67955
H          1.36627        0.59448       -0.85910
H          1.97873       -0.19359        0.60080
H         -0.60510       -0.84754       -0.91143
H          0.32201       -2.96802       -1.50303
H          1.45726       -1.70805       -2.00567
H          0.74764       -4.27936        0.51408
H          1.32829       -1.72135        2.12019
H          0.12429       -2.95349        2.47266
H          1.98139       -4.48762        2.72726
H          2.91029       -5.07751        1.35929
H          3.27983       -3.48697        2.06066
H          3.66167       -4.28675       -0.48059
H          1.52344       -4.53816       -2.65859
H          2.90147       -5.60166       -2.37589
H          1.60059       -5.53482       -1.19094
H          4.56404       -3.70537       -2.62744
H          3.22141       -2.62093       -2.98298
H          4.74280       -1.19292       -2.19199
H          3.92651       -1.53838       -0.81208

--Link1--
%chk=JID_2074.chk
%mem=8GB
%nprocshared=4
# B3LYP/6-311++G(d,p) empiricaldispersion=gd3bj scf=xqc pop=npa geom=check

CID_43544320_JID_2074_Energie_neutraal

0 1

--Link1--
%chk=JID_2074.chk
%mem=8GB
%nprocshared=4
# B3LYP/6-311++G(d,p) empiricaldispersion=gd3bj scf=xqc pop=npa geom=check

CID_43544320_JID_2074_Energie_kation

1 2

--Link1--
%chk=JID_2074.chk
%mem=8GB
%nprocshared=4
# B3LYP/6-311++G(d,p) empiricaldispersion=gd3bj scf=xqc pop=npa geom=check

CID_43544320_JID_2074_Energie_anion

-1 2
