%chk=JID_3394.chk
%mem=8GB
%nprocshared=4
# opt freq B3LYP/6-31G(d) empiricaldispersion=gd3bj scf=xqc

CID_62118454_JID_3394_neutraal

0 1
C          2.18000       -0.00100        0.04500
N          0.75153       -0.09908        0.17271
C          0.03074       -1.25172        0.21637
N         -1.24111       -0.96726        0.35829
N         -1.35795        0.40227        0.40464
C         -0.15259        0.92685        0.28585
C          0.19508        2.37958        0.29654
N          0.01892        2.97327       -1.02868
C          0.38702        4.38247       -1.07935
C          1.89176        4.64461       -1.21200
C          2.55606        4.05117       -2.46120
C          1.96794        4.52522       -3.78620
O          2.06635        5.93637       -3.90276
H          2.58462        0.40383        0.97592
H          2.60100       -0.99253       -0.14085
H          2.41401        0.65807       -0.79483
H          0.45666       -2.24255        0.14730
H         -0.46384        2.88184        1.01503
H          1.22202        2.51353        0.65243
H          0.49088        2.42519       -1.74075
H         -0.13266        4.83537       -1.93079
H          0.00319        4.90788       -0.19588
H          2.05323        5.72982       -1.20333
H          2.41280        4.25956       -0.32711
H          3.61554        4.33596       -2.43174
H          2.52526        2.95680       -2.42187
H          2.53402        4.08571       -4.61371
H          0.92310        4.22421       -3.90900
H          1.32401        6.32824       -3.41229

--Link1--
%chk=JID_3394.chk
%mem=8GB
%nprocshared=4
# B3LYP/6-311++G(d,p) empiricaldispersion=gd3bj scf=xqc pop=npa geom=check

CID_62118454_JID_3394_Energie_neutraal

0 1

--Link1--
%chk=JID_3394.chk
%mem=8GB
%nprocshared=4
# B3LYP/6-311++G(d,p) empiricaldispersion=gd3bj scf=xqc pop=npa geom=check

CID_62118454_JID_3394_Energie_kation

1 2

--Link1--
%chk=JID_3394.chk
%mem=8GB
%nprocshared=4
# B3LYP/6-311++G(d,p) empiricaldispersion=gd3bj scf=xqc pop=npa geom=check

CID_62118454_JID_3394_Energie_anion

-1 2
