%chk=JID_10904.chk
%mem=8GB
%nprocshared=4
# opt freq B3LYP/6-31G(d) empiricaldispersion=gd3bj scf=xqc

CID_43116945_JID_10904_neutraal

0 1
C          0.99628        0.09953       -0.00894
C          0.40748       -0.05178        1.39350
C          1.03137        1.02734        2.32357
O          0.51211        2.11937        2.55101
N          2.26343        0.77257        2.88298
C          3.11041       -0.35405        2.68051
C          4.01217       -0.82080        3.79235
C          2.85715       -1.67132        3.35859
O         -1.00614       -0.26656        1.33112
C         -1.78481        0.84661        1.19759
C         -2.48461        1.38250        2.28758
C         -3.26266        2.53240        2.10848
C         -3.40073        3.10435        0.83879
C         -2.76329        2.51767       -0.25965
C         -1.96871        1.38526       -0.07942
C         -4.22212        4.32081        0.63228
S         -5.75613        4.56240        1.24386
N         -3.64746        5.30360       -0.13294
O         -2.44909        0.91831        3.57662
C         -2.46524       -0.49783        3.71368
H          0.83189        1.10868       -0.40128
H          0.53669       -0.60871       -0.70627
H          2.07706       -0.06555       -0.01627
H          0.76490       -1.01531        1.77081
H          2.60127        1.53769        3.45810
H          3.55651       -0.37675        1.68889
H          5.01173       -1.14924        3.53027
H          3.94493       -0.33766        4.76014
H          2.01193       -1.75607        4.03189
H          3.07326       -2.57656        2.80236
H         -3.75798        2.97141        2.97086
H         -2.89752        2.92223       -1.25951
H         -1.50433        0.92185       -0.94438
H         -2.67868        5.26998       -0.42603
H         -4.14377        6.17938       -0.25070
H         -3.08026       -0.98785        2.95063
H         -1.44501       -0.89204        3.71323
H         -2.90418       -0.73036        4.68901

--Link1--
%chk=JID_10904.chk
%mem=8GB
%nprocshared=4
# B3LYP/6-311++G(d,p) empiricaldispersion=gd3bj scf=xqc pop=npa geom=check

CID_43116945_JID_10904_Energie_neutraal

0 1

--Link1--
%chk=JID_10904.chk
%mem=8GB
%nprocshared=4
# B3LYP/6-311++G(d,p) empiricaldispersion=gd3bj scf=xqc pop=npa geom=check

CID_43116945_JID_10904_Energie_kation

1 2

--Link1--
%chk=JID_10904.chk
%mem=8GB
%nprocshared=4
# B3LYP/6-311++G(d,p) empiricaldispersion=gd3bj scf=xqc pop=npa geom=check

CID_43116945_JID_10904_Energie_anion

-1 2
