%chk=JID_6417.chk
%mem=8GB
%nprocshared=4
# opt freq B3LYP/6-31G(d) empiricaldispersion=gd3bj scf=xqc

CID_108473606_JID_6417_neutraal

0 1
C          0.90575       -0.02111       -0.02593
C          0.65820        1.44809       -0.33618
C          0.57727        1.74348       -1.83595
C         -0.66633        1.19370       -2.54860
N         -1.90495        1.90297       -2.19205
C         -2.16272        3.16875       -2.89996
C         -2.70644        2.97229       -4.32288
C         -4.14937        2.47064       -4.40456
C         -5.17298        3.56834       -4.15372
C         -2.71692        1.32815       -1.22186
O         -2.43354        0.25494       -0.68229
C         -3.96473        2.04919       -0.75395
C         -3.82981        2.54749        0.67922
C         -2.87266        3.72708        0.90218
O         -3.98621        4.65679        0.93839
C         -4.90792        3.54925        1.11226
H          0.08036       -0.65398       -0.36127
H          1.01604       -0.16247        1.05405
H          1.82423       -0.37259       -0.50681
H         -0.24593        1.79179        0.17647
H          1.49008        2.02752        0.08285
H          0.63063        2.82948       -1.97461
H          1.46785        1.32756       -2.32354
H         -0.52198        1.28808       -3.63012
H         -0.77376        0.12169       -2.35494
H         -2.81689        3.82233       -2.32201
H         -1.20799        3.70301       -2.96574
H         -2.62844        3.92495       -4.86154
H         -2.06870        2.26444       -4.86421
H         -4.32185        2.07668       -5.41373
H         -4.31256        1.63691       -3.71445
H         -5.08606        4.35874       -4.90643
H         -6.18605        3.15807       -4.21409
H         -5.05207        4.02611       -3.16912
H         -4.26229        2.85453       -1.41982
H         -4.78419        1.32067       -0.80911
H         -3.68665        1.72997        1.39544
H         -2.33485        3.72087        1.85585
H         -2.17643        3.95878        0.09278
H         -5.78013        3.63860        0.45876
H         -5.23446        3.46908        2.15411

--Link1--
%chk=JID_6417.chk
%mem=8GB
%nprocshared=4
# B3LYP/6-311++G(d,p) empiricaldispersion=gd3bj scf=xqc pop=npa geom=check

CID_108473606_JID_6417_Energie_neutraal

0 1

--Link1--
%chk=JID_6417.chk
%mem=8GB
%nprocshared=4
# B3LYP/6-311++G(d,p) empiricaldispersion=gd3bj scf=xqc pop=npa geom=check

CID_108473606_JID_6417_Energie_kation

1 2

--Link1--
%chk=JID_6417.chk
%mem=8GB
%nprocshared=4
# B3LYP/6-311++G(d,p) empiricaldispersion=gd3bj scf=xqc pop=npa geom=check

CID_108473606_JID_6417_Energie_anion

-1 2
