%chk=JID_6902.chk
%mem=8GB
%nprocshared=4
# opt freq B3LYP/6-31G(d) empiricaldispersion=gd3bj scf=xqc

CID_82239190_JID_6902_neutraal

0 1
C          0.93821        0.06466       -0.04473
C          0.53786        1.38522        0.49014
N         -0.31212        1.61578        1.46981
C         -0.38216        2.97347        1.57282
C          0.47121        3.59276        0.68506
N          1.03354        2.56288       -0.01594
N          0.78232        4.88300        0.43214
N         -1.19436        3.60760        2.44053
C         -2.33197        2.90068        3.03063
C         -2.44961        3.35026        4.48974
C         -3.64470        3.21807        2.28086
C         -3.69854        2.73621        0.85419
C         -3.63706        1.41148        0.46043
S         -3.72256        1.21523       -1.23586
C         -3.85138        2.90096       -1.47651
C         -3.82642        3.59542       -0.28766
H          0.66638       -0.02114       -1.10130
H          0.43745       -0.74026        0.50203
H          2.01879       -0.07905        0.05101
H          1.68743        2.65080       -0.77715
H          0.53747        5.57049        1.14090
H          1.63669        5.12769       -0.05888
H         -1.35297        4.59378        2.27476
H         -2.16870        1.81564        3.04215
H         -2.62171        4.43006        4.56307
H         -3.27717        2.83762        4.99108
H         -1.52940        3.12427        5.03993
H         -4.48687        2.76253        2.81889
H         -3.82146        4.30212        2.29721
H         -3.52085        0.54112        1.09173
H         -3.93397        3.30338       -2.47616
H         -3.88771        4.67549       -0.23734

--Link1--
%chk=JID_6902.chk
%mem=8GB
%nprocshared=4
# B3LYP/6-311++G(d,p) empiricaldispersion=gd3bj scf=xqc pop=npa geom=check

CID_82239190_JID_6902_Energie_neutraal

0 1

--Link1--
%chk=JID_6902.chk
%mem=8GB
%nprocshared=4
# B3LYP/6-311++G(d,p) empiricaldispersion=gd3bj scf=xqc pop=npa geom=check

CID_82239190_JID_6902_Energie_kation

1 2

--Link1--
%chk=JID_6902.chk
%mem=8GB
%nprocshared=4
# B3LYP/6-311++G(d,p) empiricaldispersion=gd3bj scf=xqc pop=npa geom=check

CID_82239190_JID_6902_Energie_anion

-1 2
