%chk=JID_10801.chk
%mem=8GB
%nprocshared=4
# opt freq B3LYP/6-31G(d) empiricaldispersion=gd3bj scf=xqc

CID_61596730_JID_10801_neutraal

0 1
C          1.06764       -0.06496        0.03471
C          0.54026       -1.44342        0.40131
C          0.65956       -1.75776        1.89346
C         -0.31374       -1.00994        2.82096
N         -1.74158       -1.32952        2.62156
C         -2.15080       -2.67145        3.06897
C         -2.45955       -2.75887        4.57215
O         -2.73877       -3.81387        5.13359
N         -2.45664       -1.58085        5.26312
C         -2.47674       -0.46662        1.83136
O         -1.89777        0.44111        1.22356
N         -3.83785       -0.61493        1.66244
C         -4.82432       -1.16530        2.59337
C         -5.64248       -0.10701        3.26850
C         -6.98107        0.33205        2.72750
C         -6.91602       -0.49906        3.97697
C         -4.39255        0.11675        0.50984
C         -4.61147        1.62179        0.65778
O         -5.09144        2.34197       -0.20896
O         -4.24180        2.16057        1.83527
H          0.53631        0.73392        0.55672
H          0.95900        0.10497       -1.04122
H          2.13094        0.02074        0.28167
H         -0.49402       -1.55619        0.06140
H          1.12734       -2.18563       -0.15381
H          0.53506       -2.83830        2.02225
H          1.68336       -1.53594        2.22091
H         -0.06537       -1.26491        3.85812
H         -0.15503        0.07074        2.73593
H         -3.01150       -3.02244        2.49496
H         -1.34025       -3.37761        2.86800
H         -2.32923       -0.69844        4.78166
H         -2.70640       -1.58615        6.24234
H         -5.45415       -1.86505        2.03130
H         -4.35853       -1.72234        3.39312
H         -5.01981        0.62322        3.77456
H         -7.24491        1.37939        2.82698
H         -7.36911       -0.13690        1.83074
H         -7.25324       -1.52816        3.91837
H         -7.14053       -0.01566        4.92137
H         -3.70926       -0.01779       -0.33834
H         -5.34851       -0.34291        0.23667
H         -4.37576        3.12101        1.70640

--Link1--
%chk=JID_10801.chk
%mem=8GB
%nprocshared=4
# B3LYP/6-311++G(d,p) empiricaldispersion=gd3bj scf=xqc pop=npa geom=check

CID_61596730_JID_10801_Energie_neutraal

0 1

--Link1--
%chk=JID_10801.chk
%mem=8GB
%nprocshared=4
# B3LYP/6-311++G(d,p) empiricaldispersion=gd3bj scf=xqc pop=npa geom=check

CID_61596730_JID_10801_Energie_kation

1 2

--Link1--
%chk=JID_10801.chk
%mem=8GB
%nprocshared=4
# B3LYP/6-311++G(d,p) empiricaldispersion=gd3bj scf=xqc pop=npa geom=check

CID_61596730_JID_10801_Energie_anion

-1 2
