%chk=JID_5784.chk
%mem=8GB
%nprocshared=4
# opt freq B3LYP/6-31G(d) empiricaldispersion=gd3bj scf=xqc

CID_116827973_JID_5784_neutraal

0 1
C          1.05465        0.08374        0.00083
C          0.47732       -0.56450       -1.25040
C          0.73271       -2.08351       -1.32436
C          0.02399       -2.85608       -0.20624
C          0.33853       -2.63119       -2.69009
C         -0.99122       -2.58861       -3.14276
C         -1.33374       -3.09844       -4.39655
C         -0.34365       -3.65590       -5.20808
C          0.98357       -3.70692       -4.77699
C          1.32017       -3.19533       -3.52216
C         -0.70760       -4.18822       -6.53710
N         -1.01188       -3.50066       -7.58232
C         -0.95528       -2.04758       -7.51344
S         -0.72786       -5.94824       -6.61246
C         -1.18301       -6.21008       -8.33939
H          0.55077       -0.26947        0.90509
H          0.92540        1.16990       -0.04644
H          2.12489       -0.12541        0.09431
H         -0.59747       -0.34979       -1.29501
H          0.92807       -0.07804       -2.12529
H          1.81105       -2.24565       -1.19103
H         -1.05394       -2.66149       -0.19662
H          0.16682       -3.93622       -0.32546
H          0.42172       -2.58179        0.77585
H         -1.77263       -2.15938       -2.51929
H         -2.36660       -3.06396       -4.73370
H          1.75381       -4.13942       -5.41041
H          2.35750       -3.24220       -3.19660
H         -1.81070       -1.64438       -6.96288
H         -0.02133       -1.68471       -7.07198
H         -1.00321       -1.64517       -8.53043
H         -2.16609       -5.78095       -8.55180
H         -0.43703       -5.77205       -9.00826
H         -1.22961       -7.28462       -8.53669

--Link1--
%chk=JID_5784.chk
%mem=8GB
%nprocshared=4
# B3LYP/6-311++G(d,p) empiricaldispersion=gd3bj scf=xqc pop=npa geom=check

CID_116827973_JID_5784_Energie_neutraal

0 1

--Link1--
%chk=JID_5784.chk
%mem=8GB
%nprocshared=4
# B3LYP/6-311++G(d,p) empiricaldispersion=gd3bj scf=xqc pop=npa geom=check

CID_116827973_JID_5784_Energie_kation

1 2

--Link1--
%chk=JID_5784.chk
%mem=8GB
%nprocshared=4
# B3LYP/6-311++G(d,p) empiricaldispersion=gd3bj scf=xqc pop=npa geom=check

CID_116827973_JID_5784_Energie_anion

-1 2
