%chk=JID_10108.chk
%mem=8GB
%nprocshared=4
# opt freq B3LYP/6-31G(d) empiricaldispersion=gd3bj scf=xqc

CID_81317477_JID_10108_neutraal

0 1
C          0.78100       -1.26600       -0.21900
C          1.65499       -0.14168        0.31920
C          1.04400        1.22359        0.00276
C         -0.44346        1.29780        0.32502
O         -1.15171        0.20047       -0.25998
C         -0.67118       -1.06460        0.19386
C          1.84232        2.37506        0.58514
O          2.36257        3.20464       -0.16763
N          2.04846        2.54363        1.91363
C          1.47578        1.91218        3.08817
C          2.54813        1.47234        4.06041
C          2.83650        0.09561        4.14863
C          3.82682       -0.38813        5.00225
C          4.55202        0.49616        5.78771
C          4.27979        1.86117        5.72402
C          3.28047        2.36972        4.86943
C          3.02750        3.86002        4.90596
C          2.31216        4.29494        6.15744
O          2.83240        4.68574        7.19007
O          0.97094        4.19265        6.06098
H          0.84570       -1.26593       -1.31406
H          1.14790       -2.23544        0.13410
H          1.77398       -0.28254        1.39348
H          2.66233       -0.21282       -0.10849
H          1.12194        1.33110       -1.09033
H         -0.66005        1.31562        1.39565
H         -0.86839        2.21920       -0.08912
H         -1.29696       -1.84035       -0.25863
H         -0.79119       -1.13276        1.28148
H          2.63857        3.34835        2.08123
H          0.81046        2.64005        3.56496
H          0.84782        1.06525        2.81121
H          2.28276       -0.62437        3.55071
H          4.02995       -1.45476        5.05165
H          5.32561        0.12544        6.45500
H          4.85297        2.53639        6.35916
H          3.98366        4.39649        4.85499
H          2.46180        4.22139        4.04327
H          0.65216        4.47237        6.94549

--Link1--
%chk=JID_10108.chk
%mem=8GB
%nprocshared=4
# B3LYP/6-311++G(d,p) empiricaldispersion=gd3bj scf=xqc pop=npa geom=check

CID_81317477_JID_10108_Energie_neutraal

0 1

--Link1--
%chk=JID_10108.chk
%mem=8GB
%nprocshared=4
# B3LYP/6-311++G(d,p) empiricaldispersion=gd3bj scf=xqc pop=npa geom=check

CID_81317477_JID_10108_Energie_kation

1 2

--Link1--
%chk=JID_10108.chk
%mem=8GB
%nprocshared=4
# B3LYP/6-311++G(d,p) empiricaldispersion=gd3bj scf=xqc pop=npa geom=check

CID_81317477_JID_10108_Energie_anion

-1 2
