%chk=JID_4047.chk
%mem=8GB
%nprocshared=4
# opt freq B3LYP/6-31G(d) empiricaldispersion=gd3bj scf=xqc

CID_66474366_JID_4047_neutraal

0 1
C          0.13400       -1.47800        0.20800
C          1.17511       -1.06429       -0.81367
O          1.52327        0.30401       -0.64647
C          0.40099        1.18802       -0.66068
O         -0.60268        0.81535        0.27925
C         -1.04478       -0.52779        0.13090
C         -0.14367        1.41072       -2.07941
C         -1.34542        2.35270       -2.15993
S         -0.93231        4.06447       -1.69890
C         -1.78518        4.20377       -0.17971
N         -3.02231        3.78418       -0.02065
N         -3.48568        4.00549        1.26318
C         -2.57648        4.59258        2.01114
S         -1.09743        4.92942        1.21278
H         -0.18254       -2.51350        0.05076
H          0.57776       -1.40248        1.20826
H          2.08509       -1.65838       -0.68078
H          0.82593       -1.23882       -1.83677
H          0.79830        2.14213       -0.30107
H         -1.59143       -0.64000       -0.81171
H         -1.75070       -0.73945        0.94038
H          0.66885        1.76177       -2.72873
H         -0.45686        0.45370       -2.51236
H         -1.68966        2.38475       -3.19973
H         -2.18090        1.95963       -1.57266
H         -2.75078        4.84675        3.04700

--Link1--
%chk=JID_4047.chk
%mem=8GB
%nprocshared=4
# B3LYP/6-311++G(d,p) empiricaldispersion=gd3bj scf=xqc pop=npa geom=check

CID_66474366_JID_4047_Energie_neutraal

0 1

--Link1--
%chk=JID_4047.chk
%mem=8GB
%nprocshared=4
# B3LYP/6-311++G(d,p) empiricaldispersion=gd3bj scf=xqc pop=npa geom=check

CID_66474366_JID_4047_Energie_kation

1 2

--Link1--
%chk=JID_4047.chk
%mem=8GB
%nprocshared=4
# B3LYP/6-311++G(d,p) empiricaldispersion=gd3bj scf=xqc pop=npa geom=check

CID_66474366_JID_4047_Energie_anion

-1 2
