%chk=JID_5926.chk
%mem=8GB
%nprocshared=4
# opt freq B3LYP/6-31G(d) empiricaldispersion=gd3bj scf=xqc

CID_64650817_JID_5926_neutraal

0 1
C          0.94028        0.04518       -0.06628
C          1.51779        0.44508        1.28445
C          1.83277        1.94242        1.46290
C          0.56539        2.80519        1.54728
C          0.90933        4.27354        1.80948
C          1.86925        4.83596        0.74641
C          3.13226        3.95002        0.63265
C          2.76722        2.48550        0.37100
S          4.38175        4.58832       -0.55073
O          5.53345        3.62808       -0.57331
C          3.48082        4.48676       -2.12607
C          3.68738        3.17500       -2.89791
C          2.45659        2.88723       -3.76320
C          4.93253        3.23349       -3.78718
N          2.18220        6.23400        1.06399
H          0.02242        0.59500       -0.29180
H          0.69633       -1.02239       -0.06395
H          1.65654        0.21391       -0.87570
H          0.82145        0.13096        2.07188
H          2.43964       -0.12830        1.44395
H          2.35425        2.03333        2.42655
H         -0.08392        2.44019        2.35175
H         -0.00896        2.73513        0.61586
H          1.35707        4.36409        2.80797
H         -0.01897        4.85844        1.82506
H          1.32860        4.83693       -0.20528
H          3.65802        3.98926        1.59717
H          3.67199        1.86766        0.32482
H          2.26640        2.40363       -0.59849
H          2.42335        4.67661       -1.94110
H          3.83717        5.33113       -2.72790
H          3.81135        2.33119       -2.21153
H          2.28037        3.69259       -4.48454
H          2.57970        1.95230       -4.31960
H          1.56022        2.78733       -3.14125
H          5.83646        3.41594       -3.19896
H          5.06931        2.28577       -4.31938
H          4.84983        4.02850       -4.53624
H          1.31954        6.76393        1.19130
H          2.67636        6.28943        1.95574

--Link1--
%chk=JID_5926.chk
%mem=8GB
%nprocshared=4
# B3LYP/6-311++G(d,p) empiricaldispersion=gd3bj scf=xqc pop=npa geom=check

CID_64650817_JID_5926_Energie_neutraal

0 1

--Link1--
%chk=JID_5926.chk
%mem=8GB
%nprocshared=4
# B3LYP/6-311++G(d,p) empiricaldispersion=gd3bj scf=xqc pop=npa geom=check

CID_64650817_JID_5926_Energie_kation

1 2

--Link1--
%chk=JID_5926.chk
%mem=8GB
%nprocshared=4
# B3LYP/6-311++G(d,p) empiricaldispersion=gd3bj scf=xqc pop=npa geom=check

CID_64650817_JID_5926_Energie_anion

-1 2
