%chk=JID_1742.chk
%mem=8GB
%nprocshared=4
# opt freq B3LYP/6-31G(d) empiricaldispersion=gd3bj scf=xqc

CID_11263634_JID_1742_neutraal

0 1
C          1.03024        0.07960        0.05243
C          0.55290       -1.08252       -0.82014
C          1.13153       -2.35767       -0.24870
O          0.47595       -3.24750        0.28257
C         -0.97384       -1.12646       -0.92650
C         -1.52158       -2.24501       -1.80436
C         -2.84942       -1.67418       -2.24143
C         -2.52344       -0.19655       -2.43908
O         -1.44629        0.10173       -1.52719
C         -2.02518        0.09179       -3.85808
C         -3.71085        0.70170       -2.10669
H          0.64174       -0.00781        1.07331
H          0.70813        1.04287       -0.35556
H          2.12393        0.09440        0.11838
H          0.97865       -0.95195       -1.82304
H          2.22960       -2.44800       -0.32610
H         -1.42696       -1.18690        0.07162
H         -1.63082       -3.19423       -1.27289
H         -0.87959       -2.41534       -2.67629
H         -3.57846       -1.80841       -1.43225
H         -3.25268       -2.15935       -3.13539
H         -1.73780        1.14430       -3.96203
H         -1.12973       -0.49299       -4.09514
H         -2.79304       -0.13296       -4.60564
H         -4.02327        0.56735       -1.06497
H         -3.44192        1.75890       -2.21224
H         -4.56658        0.49352       -2.75704

--Link1--
%chk=JID_1742.chk
%mem=8GB
%nprocshared=4
# B3LYP/6-311++G(d,p) empiricaldispersion=gd3bj scf=xqc pop=npa geom=check

CID_11263634_JID_1742_Energie_neutraal

0 1

--Link1--
%chk=JID_1742.chk
%mem=8GB
%nprocshared=4
# B3LYP/6-311++G(d,p) empiricaldispersion=gd3bj scf=xqc pop=npa geom=check

CID_11263634_JID_1742_Energie_kation

1 2

--Link1--
%chk=JID_1742.chk
%mem=8GB
%nprocshared=4
# B3LYP/6-311++G(d,p) empiricaldispersion=gd3bj scf=xqc pop=npa geom=check

CID_11263634_JID_1742_Energie_anion

-1 2
