%chk=JID_9234.chk
%mem=8GB
%nprocshared=4
# opt freq B3LYP/6-31G(d) empiricaldispersion=gd3bj scf=xqc

CID_64919133_JID_9234_neutraal

0 1
C          1.05736       -0.06530       -0.04946
C          0.75712       -0.43695        1.40152
C          0.92793        0.71939        2.41761
C          0.11181        1.98981        2.05219
C         -1.36568        1.89420        2.25678
N         -2.10417        0.99182        1.60220
N         -3.35855        1.17751        2.06286
C         -3.44655        2.22340        2.93414
C         -2.16927        2.70445        3.09022
C         -4.40942        0.26842        1.60832
C         -5.05969       -0.53003        2.75097
C         -6.21274        0.18810        3.44912
C         -7.22433        0.74674        2.45607
C         -6.56483        1.65464        1.42509
C         -5.43364        0.94533        0.68573
C          0.66993        0.32562        3.87168
C         -0.27390       -0.77933        4.28725
C          1.20878       -0.95169        4.47376
O          2.32439        1.08549        2.35167
H          0.30891        0.62309       -0.45174
H          1.03814       -0.96517       -0.67345
H          2.04615        0.39116       -0.15325
H         -0.24884       -0.86434        1.44532
H          1.44883       -1.24809        1.65993
H          0.48700        2.82409        2.66338
H          0.32081        2.30556        1.02331
H         -4.37840        2.53788        3.37675
H         -1.85835        3.52682        3.71862
H         -3.87502       -0.46794        0.98937
H         -5.45798       -1.46187        2.32740
H         -4.30858       -0.82624        3.49362
H         -5.82984        0.99644        4.07993
H         -6.71701       -0.51202        4.12569
H         -7.99901        1.30409        2.99479
H         -7.72772       -0.08237        1.94357
H         -6.18783        2.55898        1.91399
H         -7.31730        1.98664        0.70013
H         -4.93845        1.65081        0.00751
H         -5.88330        0.16994        0.05091
H          0.69717        1.19758        4.52091
H         -0.88409       -0.61292        5.16843
H         -0.76765       -1.37974        3.53344
H          1.72416       -1.66317        3.84027
H          1.60013       -0.91007        5.48422
H          2.52669        1.62425        3.13394

--Link1--
%chk=JID_9234.chk
%mem=8GB
%nprocshared=4
# B3LYP/6-311++G(d,p) empiricaldispersion=gd3bj scf=xqc pop=npa geom=check

CID_64919133_JID_9234_Energie_neutraal

0 1

--Link1--
%chk=JID_9234.chk
%mem=8GB
%nprocshared=4
# B3LYP/6-311++G(d,p) empiricaldispersion=gd3bj scf=xqc pop=npa geom=check

CID_64919133_JID_9234_Energie_kation

1 2

--Link1--
%chk=JID_9234.chk
%mem=8GB
%nprocshared=4
# B3LYP/6-311++G(d,p) empiricaldispersion=gd3bj scf=xqc pop=npa geom=check

CID_64919133_JID_9234_Energie_anion

-1 2
