%chk=JID_6547.chk
%mem=8GB
%nprocshared=4
# opt freq B3LYP/6-31G(d) empiricaldispersion=gd3bj scf=xqc

CID_79265342_JID_6547_neutraal

0 1
C          0.95730       -0.06045        0.06725
C         -0.12942        0.17087        0.81626
C         -1.47204       -0.44989        0.56196
N         -1.69638       -1.48483        1.56517
C         -2.31500       -1.04784        2.82684
C         -3.83459       -0.91404        2.78231
O         -4.53016       -0.53231        3.71128
O         -4.40108       -1.28569        1.61959
C         -1.50551       -2.81608        1.18133
O         -1.16116       -3.10243        0.03055
C         -1.74193       -3.93410        2.23653
C         -0.56440       -4.00601        3.22570
O          0.56786       -4.70640        2.69316
C          0.18451       -6.01318        2.25201
C         -0.91516       -5.91647        1.20146
O         -2.06117       -5.23485        1.72566
H          0.92767       -0.75071       -0.77211
H          1.90501        0.41877        0.29033
H         -0.05200        0.86342        1.64974
H         -2.25678        0.31134        0.63443
H         -1.52690       -0.86194       -0.45139
H         -2.07703       -1.74928        3.62760
H         -1.89717       -0.07195        3.09514
H         -5.36486       -1.16849        1.75446
H         -2.64148       -3.64561        2.78921
H         -0.87837       -4.52961        4.13699
H         -0.21445       -3.01294        3.52107
H          1.06887       -6.50515        1.83646
H         -0.15296       -6.58970        3.12109
H         -1.23473       -6.91918        0.90115
H         -0.55583       -5.40334        0.30558

--Link1--
%chk=JID_6547.chk
%mem=8GB
%nprocshared=4
# B3LYP/6-311++G(d,p) empiricaldispersion=gd3bj scf=xqc pop=npa geom=check

CID_79265342_JID_6547_Energie_neutraal

0 1

--Link1--
%chk=JID_6547.chk
%mem=8GB
%nprocshared=4
# B3LYP/6-311++G(d,p) empiricaldispersion=gd3bj scf=xqc pop=npa geom=check

CID_79265342_JID_6547_Energie_kation

1 2

--Link1--
%chk=JID_6547.chk
%mem=8GB
%nprocshared=4
# B3LYP/6-311++G(d,p) empiricaldispersion=gd3bj scf=xqc pop=npa geom=check

CID_79265342_JID_6547_Energie_anion

-1 2
