%chk=JID_8051.chk
%mem=8GB
%nprocshared=4
# opt freq B3LYP/6-31G(d) empiricaldispersion=gd3bj scf=xqc

CID_113387106_JID_8051_neutraal

0 1
C          2.33000       -0.46200        0.00600
C          0.86976       -0.25597        0.18710
C          0.07218       -0.59482        1.25877
N         -1.25977       -0.25219        1.14770
C         -1.48109        0.34289       -0.01121
S         -0.08631        0.49533       -1.01804
C         -2.85407        0.78378       -0.50266
C         -3.83482        1.01480        0.65478
N         -2.94562        1.87192       -1.49690
C         -2.72043        3.22697       -1.20915
C         -3.15365        4.17355       -2.17218
C         -3.06667        5.54252       -1.90353
C         -2.41031        6.00232       -0.76256
C         -1.85613        5.07689        0.11947
C         -2.00579        3.70036       -0.10793
O         -2.36637        7.36355       -0.63768
C         -1.79768        7.88150        0.55781
N         -3.86092        3.72350       -3.31958
H          2.62405       -0.42514       -1.04795
H          2.88871        0.31040        0.54442
H          2.63106       -1.43825        0.40028
H          0.41285       -1.09794        2.15592
H         -3.23560       -0.10073       -1.03369
H         -3.48345        1.78556        1.34820
H         -4.81914        1.32079        0.28357
H         -3.97119        0.09749        1.23899
H         -3.83434        1.82257       -1.99867
H         -3.49200        6.26375       -2.59543
H         -1.30992        5.38725        1.00383
H         -1.56947        3.02036        0.61644
H         -2.34044        7.52815        1.44083
H         -0.73227        7.63846        0.62356
H         -1.88899        8.97160        0.52554
H         -3.86423        4.42424       -4.05551
H         -3.43108        2.86006       -3.65044

--Link1--
%chk=JID_8051.chk
%mem=8GB
%nprocshared=4
# B3LYP/6-311++G(d,p) empiricaldispersion=gd3bj scf=xqc pop=npa geom=check

CID_113387106_JID_8051_Energie_neutraal

0 1

--Link1--
%chk=JID_8051.chk
%mem=8GB
%nprocshared=4
# B3LYP/6-311++G(d,p) empiricaldispersion=gd3bj scf=xqc pop=npa geom=check

CID_113387106_JID_8051_Energie_kation

1 2

--Link1--
%chk=JID_8051.chk
%mem=8GB
%nprocshared=4
# B3LYP/6-311++G(d,p) empiricaldispersion=gd3bj scf=xqc pop=npa geom=check

CID_113387106_JID_8051_Energie_anion

-1 2
