%chk=JID_6323.chk
%mem=8GB
%nprocshared=4
# opt freq B3LYP/6-31G(d) empiricaldispersion=gd3bj scf=xqc

CID_114387196_JID_6323_neutraal

0 1
C         -2.02100        1.32300        0.04900
C         -0.68449        0.68848       -0.19309
C         -0.55355       -0.67251       -0.41745
N          0.66967       -1.18653       -0.63604
N          1.74862       -0.35143       -0.63056
C          1.58536        0.96886       -0.40569
N          0.38548        1.52153       -0.18196
N          2.75489        1.70847       -0.44300
C          3.00420        3.03549       -0.25613
O          4.16687        3.43783       -0.30463
C          1.90782        4.03269       -0.01065
C          1.92907        5.24591       -0.95237
C          0.82477        4.25133       -1.06470
C          1.61034        4.37236        1.43721
N          1.12269        3.21196        2.16675
C         -1.70797       -1.61966       -0.43177
H         -1.91593        2.40185        0.20537
H         -2.67781        1.17204       -0.81311
H         -2.48927        0.89948        0.94274
H          3.58038        1.15119       -0.59801
H          1.69923        6.22486       -0.54755
H          2.67687        5.27095       -1.73898
H          0.81505        3.61335       -1.94174
H         -0.16444        4.53791       -0.72740
H          2.51744        4.74999        1.92157
H          0.85554        5.16532        1.49784
H          0.69222        3.51218        3.03807
H          0.39520        2.75582        1.61168
H         -2.21840       -1.61567        0.53618
H         -2.41867       -1.34564       -1.21739
H         -1.36974       -2.64257       -0.62781

--Link1--
%chk=JID_6323.chk
%mem=8GB
%nprocshared=4
# B3LYP/6-311++G(d,p) empiricaldispersion=gd3bj scf=xqc pop=npa geom=check

CID_114387196_JID_6323_Energie_neutraal

0 1

--Link1--
%chk=JID_6323.chk
%mem=8GB
%nprocshared=4
# B3LYP/6-311++G(d,p) empiricaldispersion=gd3bj scf=xqc pop=npa geom=check

CID_114387196_JID_6323_Energie_kation

1 2

--Link1--
%chk=JID_6323.chk
%mem=8GB
%nprocshared=4
# B3LYP/6-311++G(d,p) empiricaldispersion=gd3bj scf=xqc pop=npa geom=check

CID_114387196_JID_6323_Energie_anion

-1 2
