%chk=JID_5648.chk
%mem=8GB
%nprocshared=4
# opt freq B3LYP/6-31G(d) empiricaldispersion=gd3bj scf=xqc

CID_110718281_JID_5648_neutraal

0 1
C         -2.31600        0.00600       -0.01000
C         -0.86695       -0.30187       -0.13822
N         -0.37311       -1.51475       -0.25549
C          1.00733       -1.46372       -0.41241
C          1.53602       -0.18634       -0.34486
S          0.28806        0.96786       -0.13873
C          1.75218       -2.75487       -0.60079
N          2.76816       -2.63226       -1.64977
C          4.11459       -2.30586       -1.21427
C          5.36392       -2.84286       -1.85451
C          5.04132       -1.37494       -1.94521
C          2.31872       -2.82765       -2.95812
O          1.16538       -3.13525       -3.24492
O          3.27977       -2.64662       -3.90499
C          2.82622       -2.82107       -5.24729
H         -2.52323        0.52018        0.93383
H         -2.65443        0.63786       -0.83728
H         -2.90607       -0.91596       -0.02764
H          2.56866        0.11999       -0.42327
H          2.22518       -3.04980        0.34290
H          1.04983       -3.55485       -0.86346
H          4.17754       -2.22474       -0.12768
H          6.17676       -3.14346       -1.20255
H          5.29032       -3.44418       -2.75151
H          4.74731       -0.96967       -2.90481
H          5.64029       -0.68969       -1.35555
H          2.47506       -3.84576       -5.40394
H          2.03869       -2.09858       -5.48406
H          3.67211       -2.63979       -5.91604

--Link1--
%chk=JID_5648.chk
%mem=8GB
%nprocshared=4
# B3LYP/6-311++G(d,p) empiricaldispersion=gd3bj scf=xqc pop=npa geom=check

CID_110718281_JID_5648_Energie_neutraal

0 1

--Link1--
%chk=JID_5648.chk
%mem=8GB
%nprocshared=4
# B3LYP/6-311++G(d,p) empiricaldispersion=gd3bj scf=xqc pop=npa geom=check

CID_110718281_JID_5648_Energie_kation

1 2

--Link1--
%chk=JID_5648.chk
%mem=8GB
%nprocshared=4
# B3LYP/6-311++G(d,p) empiricaldispersion=gd3bj scf=xqc pop=npa geom=check

CID_110718281_JID_5648_Energie_anion

-1 2
