%chk=JID_6291.chk
%mem=8GB
%nprocshared=4
# opt freq B3LYP/6-31G(d) empiricaldispersion=gd3bj scf=xqc

CID_144385139_JID_6291_neutraal

0 1
C          1.07108        0.01311        0.06910
C          0.34235       -1.19788        0.59615
C         -0.42630       -1.10525        1.69778
C          0.50928       -2.51636       -0.15570
C          0.00674       -2.49131       -1.59826
C         -1.20072       -1.84538       -1.92393
C         -1.69590       -1.85425       -3.23041
C         -1.00529       -2.52732       -4.23357
C          0.17429       -3.20013       -3.92909
C          0.67054       -3.19090       -2.62262
N          1.91668       -2.86158       -0.06364
C          2.53594       -3.61104        0.89342
O          3.75812       -3.69181        0.93630
C          1.69393       -4.32827        1.88221
C          0.91961       -5.56286        1.47731
C          2.11306       -5.69740        2.37202
H          0.84413        0.91126        0.65404
H          0.78856        0.22204       -0.96693
H          2.15438       -0.13635        0.11123
H         -0.95994       -1.96314        2.09626
H         -0.54112       -0.16750        2.23407
H         -0.07370       -3.29701        0.34536
H         -1.77212       -1.32443       -1.15797
H         -2.62504       -1.33973       -3.46192
H         -1.39150       -2.53707       -5.24931
H          0.70717       -3.74136       -4.70696
H          1.58140       -3.74949       -2.41596
H          2.56045       -2.35080       -0.65129
H          1.25633       -3.68010        2.63437
H         -0.06171       -5.71070        1.91230
H          1.01245       -5.91905        0.45711
H          3.01650       -6.13379        1.95890
H          1.94879       -5.93089        3.41729

--Link1--
%chk=JID_6291.chk
%mem=8GB
%nprocshared=4
# B3LYP/6-311++G(d,p) empiricaldispersion=gd3bj scf=xqc pop=npa geom=check

CID_144385139_JID_6291_Energie_neutraal

0 1

--Link1--
%chk=JID_6291.chk
%mem=8GB
%nprocshared=4
# B3LYP/6-311++G(d,p) empiricaldispersion=gd3bj scf=xqc pop=npa geom=check

CID_144385139_JID_6291_Energie_kation

1 2

--Link1--
%chk=JID_6291.chk
%mem=8GB
%nprocshared=4
# B3LYP/6-311++G(d,p) empiricaldispersion=gd3bj scf=xqc pop=npa geom=check

CID_144385139_JID_6291_Energie_anion

-1 2
