%chk=JID_8008.chk
%mem=8GB
%nprocshared=4
# opt freq B3LYP/6-31G(d) empiricaldispersion=gd3bj scf=xqc

CID_113483228_JID_8008_neutraal

0 1
C          2.23600        0.00100        0.01500
C          0.76477       -0.04986        0.20168
C         -0.12165       -1.10207        0.13804
C         -1.42975       -0.58928        0.35380
C         -1.29395        0.74917        0.69448
N          0.03231        1.07465        0.47790
C         -2.19124        1.75276        1.20865
O         -2.04661        2.95594        1.05098
O         -3.16632        1.24077        1.99243
N         -2.56131       -1.38161        0.28294
C         -3.86077       -1.05378        0.09060
O         -4.75270       -1.78554        0.51423
N         -4.19965        0.06128       -0.60841
C         -3.59527        0.37033       -1.90243
C         -4.25600        1.53957       -2.62317
S         -3.66194        3.15197       -2.02728
O         -3.94852        4.14957       -3.11191
C         -4.90571        3.39199       -0.73623
H          2.49243        0.63021       -0.84324
H          2.72300        0.41191        0.90510
H          2.64330       -0.99932       -0.16310
H          0.14538       -2.12561       -0.09534
H          0.40603        2.00965        0.60071
H         -3.09988        0.27083        2.07958
H         -2.41885       -2.37496        0.42917
H         -5.21306        0.11180       -0.61303
H         -2.52196        0.53666       -1.79037
H         -3.71297       -0.53237       -2.51472
H         -3.96934        1.49660       -3.67990
H         -5.34848        1.49921       -2.57527
H         -5.90574        3.37408       -1.17605
H         -4.82032        2.61644        0.02472
H         -4.73661        4.36642       -0.27160

--Link1--
%chk=JID_8008.chk
%mem=8GB
%nprocshared=4
# B3LYP/6-311++G(d,p) empiricaldispersion=gd3bj scf=xqc pop=npa geom=check

CID_113483228_JID_8008_Energie_neutraal

0 1

--Link1--
%chk=JID_8008.chk
%mem=8GB
%nprocshared=4
# B3LYP/6-311++G(d,p) empiricaldispersion=gd3bj scf=xqc pop=npa geom=check

CID_113483228_JID_8008_Energie_kation

1 2

--Link1--
%chk=JID_8008.chk
%mem=8GB
%nprocshared=4
# B3LYP/6-311++G(d,p) empiricaldispersion=gd3bj scf=xqc pop=npa geom=check

CID_113483228_JID_8008_Energie_anion

-1 2
