%chk=JID_3558.chk
%mem=8GB
%nprocshared=4
# opt freq B3LYP/6-31G(d) empiricaldispersion=gd3bj scf=xqc

CID_145636711_JID_3558_neutraal

0 1
C          1.06934       -0.02026        0.06914
C          0.32248       -0.02483       -1.04194
C         -1.14992        0.02282       -1.03777
C         -1.91443        0.95722       -0.31005
C         -3.31782        0.85256       -0.39846
N         -3.96304       -0.04837       -1.17286
C         -3.19795       -0.90595       -1.87580
C         -1.81372       -0.90974       -1.84343
N         -4.07081        1.75213        0.36342
C         -5.42812        1.80651        0.39313
O         -6.04656        2.61184        1.08085
N         -1.33916        1.96719        0.50654
C         -0.78004        2.94873       -0.11972
H          0.62706        0.03732        1.06020
H          2.15146       -0.07833        0.01114
H          0.80301       -0.10875       -2.01366
H         -3.74392       -1.62165       -2.48503
H         -1.26607       -1.64271       -2.42804
H         -3.55722        2.39036        0.95818
H         -5.93901        1.07581       -0.25375
H         -0.74185        3.03267       -1.22025
H         -0.30971        3.76261        0.45475

--Link1--
%chk=JID_3558.chk
%mem=8GB
%nprocshared=4
# B3LYP/6-311++G(d,p) empiricaldispersion=gd3bj scf=xqc pop=npa geom=check

CID_145636711_JID_3558_Energie_neutraal

0 1

--Link1--
%chk=JID_3558.chk
%mem=8GB
%nprocshared=4
# B3LYP/6-311++G(d,p) empiricaldispersion=gd3bj scf=xqc pop=npa geom=check

CID_145636711_JID_3558_Energie_kation

1 2

--Link1--
%chk=JID_3558.chk
%mem=8GB
%nprocshared=4
# B3LYP/6-311++G(d,p) empiricaldispersion=gd3bj scf=xqc pop=npa geom=check

CID_145636711_JID_3558_Energie_anion

-1 2
