%chk=JID_10767.chk
%mem=8GB
%nprocshared=4
# opt freq B3LYP/6-31G(d) empiricaldispersion=gd3bj scf=xqc

CID_136809013_JID_10767_neutraal

0 1
C         -2.13100       -0.04600       -0.06100
N         -0.69189       -0.17593       -0.03071
C          0.05291       -1.32399       -0.14606
C          1.37026       -0.91537       -0.05679
C          1.31193        0.47831        0.10131
N          0.05811        0.93164        0.11806
C         -0.52687       -2.68458       -0.31596
N          0.09401       -3.44501       -1.38297
C          1.00332       -4.44005       -1.18540
N          2.06031       -4.48285       -1.93599
C          2.98235       -5.52346       -1.73685
C          2.79108       -6.52650       -0.78745
C          3.71982       -7.55840       -0.61188
C          4.84965       -7.62232       -1.42738
C          5.07891       -6.58508       -2.33722
C          4.14359       -5.55672       -2.50658
N          5.84499       -8.57338       -1.17990
C          1.56955       -6.45480        0.02621
O          1.28779       -7.30478        0.86284
N          0.75549       -5.37969       -0.22438
H         -2.40943        0.99327        0.13293
H         -2.48164       -0.34578       -1.05147
H         -2.55299       -0.69047        0.71397
H          2.25082       -1.54203       -0.10582
H          2.12809        1.18196        0.20477
H         -0.46094       -3.21009        0.64386
H         -1.59427       -2.62067       -0.55070
H          0.41468       -2.83712       -2.13369
H          3.55112       -8.30709        0.15774
H          5.99090       -6.56768       -2.92875
H          4.32718       -4.77134       -3.23483
H          5.50134       -9.43048       -0.75612
H          6.45032       -8.75554       -1.97461
H         -0.10942       -5.36049        0.28845

--Link1--
%chk=JID_10767.chk
%mem=8GB
%nprocshared=4
# B3LYP/6-311++G(d,p) empiricaldispersion=gd3bj scf=xqc pop=npa geom=check

CID_136809013_JID_10767_Energie_neutraal

0 1

--Link1--
%chk=JID_10767.chk
%mem=8GB
%nprocshared=4
# B3LYP/6-311++G(d,p) empiricaldispersion=gd3bj scf=xqc pop=npa geom=check

CID_136809013_JID_10767_Energie_kation

1 2

--Link1--
%chk=JID_10767.chk
%mem=8GB
%nprocshared=4
# B3LYP/6-311++G(d,p) empiricaldispersion=gd3bj scf=xqc pop=npa geom=check

CID_136809013_JID_10767_Energie_anion

-1 2
