%chk=JID_1287.chk
%mem=8GB
%nprocshared=4
# opt freq B3LYP/6-31G(d) empiricaldispersion=gd3bj scf=xqc

CID_64990441_JID_1287_neutraal

0 1
C          0.92181       -0.03517        0.05148
C          0.59034       -0.67376        1.39333
C          1.20838        0.07363        2.57460
N          0.62085        1.38761        2.75188
C         -0.31068        1.84663        3.63090
O         -0.73908        2.99208        3.45524
C         -0.86427        0.98544        4.78493
C         -1.72804       -0.16404        4.28716
N          0.18309        0.52025        5.68047
C          0.75537        1.31576        6.62880
O          1.73088        0.96451        7.27687
H          0.50407        0.97331       -0.02528
H          0.50285       -0.63388       -0.76359
H          2.00461        0.02752       -0.09628
H         -0.49857       -0.72712        1.50295
H          0.96737       -1.70309        1.39151
H          1.09103       -0.52157        3.47899
H          2.28154        0.22152        2.41349
H          0.87023        2.09416        2.06849
H         -1.50409        1.65630        5.37405
H         -1.13543       -0.96601        3.83904
H         -2.28436       -0.60938        5.11947
H         -2.45032        0.18069        3.53996
H          0.67332       -0.34708        5.50726
H          0.25815        2.29006        6.76576

--Link1--
%chk=JID_1287.chk
%mem=8GB
%nprocshared=4
# B3LYP/6-311++G(d,p) empiricaldispersion=gd3bj scf=xqc pop=npa geom=check

CID_64990441_JID_1287_Energie_neutraal

0 1

--Link1--
%chk=JID_1287.chk
%mem=8GB
%nprocshared=4
# B3LYP/6-311++G(d,p) empiricaldispersion=gd3bj scf=xqc pop=npa geom=check

CID_64990441_JID_1287_Energie_kation

1 2

--Link1--
%chk=JID_1287.chk
%mem=8GB
%nprocshared=4
# B3LYP/6-311++G(d,p) empiricaldispersion=gd3bj scf=xqc pop=npa geom=check

CID_64990441_JID_1287_Energie_anion

-1 2
