%chk=JID_9543.chk
%mem=8GB
%nprocshared=4
# opt freq B3LYP/6-31G(d) empiricaldispersion=gd3bj scf=xqc

CID_82302177_JID_9543_neutraal

0 1
C         -1.51300        0.73700       -0.27100
C         -0.21511        1.54273       -0.30701
C          0.75147        0.63766        0.40899
O          1.96129        0.76433        0.46430
N          0.02936       -0.34259        1.05321
C         -1.39142       -0.08800        1.01290
C         -1.94509        0.70123        2.22979
O         -2.87201        1.50419        2.06926
N         -1.39382        0.50593        3.48809
C         -1.45186        1.62198        4.42986
C         -0.07728        1.80711        5.04746
O          0.33156        0.65275        5.78375
C          0.04579       -0.54815        5.16086
C          0.65935       -1.67978        5.73471
C          0.35163       -2.94298        5.23058
C         -0.50372       -3.07741        4.13810
C         -1.07717       -1.94832        3.54648
C         -0.79289       -0.66658        4.03004
N          1.39576       -1.56853        6.92965
H         -2.39782        1.37660       -0.33121
H         -1.53636        0.06218       -1.13710
H         -0.30616        2.47832        0.25288
H          0.11300        1.73836       -1.33023
H          0.50412       -0.96191        1.69911
H         -1.94159       -1.02688        0.91209
H         -2.20525        1.37861        5.18882
H         -1.75513        2.54510        3.92471
H          0.68009        2.01999        4.28234
H         -0.09220        2.65243        5.74283
H          0.75528       -3.83364        5.70529
H         -0.75341       -4.07019        3.77018
H         -1.79659       -2.11289        2.75263
H          2.12494       -2.26546        7.03174
H          1.73381       -0.61579        7.06022

--Link1--
%chk=JID_9543.chk
%mem=8GB
%nprocshared=4
# B3LYP/6-311++G(d,p) empiricaldispersion=gd3bj scf=xqc pop=npa geom=check

CID_82302177_JID_9543_Energie_neutraal

0 1

--Link1--
%chk=JID_9543.chk
%mem=8GB
%nprocshared=4
# B3LYP/6-311++G(d,p) empiricaldispersion=gd3bj scf=xqc pop=npa geom=check

CID_82302177_JID_9543_Energie_kation

1 2

--Link1--
%chk=JID_9543.chk
%mem=8GB
%nprocshared=4
# B3LYP/6-311++G(d,p) empiricaldispersion=gd3bj scf=xqc pop=npa geom=check

CID_82302177_JID_9543_Energie_anion

-1 2
