%chk=JID_6765.chk
%mem=8GB
%nprocshared=4
# opt freq B3LYP/6-31G(d) empiricaldispersion=gd3bj scf=xqc

CID_103022096_JID_6765_neutraal

0 1
C          0.93209       -0.02769       -0.06798
C         -0.47065       -0.59797       -0.33076
C         -0.72874       -1.69938        0.71347
C         -1.54664        0.50104       -0.19094
C         -1.44094        1.60293       -1.22835
O         -1.85531        1.46006       -2.37875
N         -0.90286        2.80853       -0.88621
C         -0.51920        3.28064        0.42969
C         -0.01659        4.72220        0.41760
C         -1.03301        5.74812       -0.08854
C         -2.35965        5.68118        0.65391
N         -2.55017        6.15137        1.85398
O         -1.39772        6.75061        2.37021
N         -3.40311        5.06164        0.02151
O         -0.39564       -1.16741       -1.64527
C         -1.54536       -1.84240       -2.13262
H          1.01210        0.41274        0.93074
H          1.20073        0.73008       -0.81197
H          1.69143       -0.81453       -0.15322
H         -0.61458       -1.31854        1.73423
H         -1.74222       -2.10560        0.62585
H         -0.03795       -2.53897        0.57553
H         -2.55173        0.07510       -0.30223
H         -1.52401        0.92018        0.81993
H         -0.81699        3.43321       -1.68056
H         -1.37613        3.16613        1.10144
H          0.27336        2.62644        0.80309
H          0.29515        4.98321        1.43553
H          0.88054        4.78784       -0.21049
H         -0.61848        6.75800        0.00919
H         -1.21906        5.59834       -1.15851
H         -1.71802        7.12264        3.21291
H         -3.18732        4.34715       -0.66521
H         -4.17639        4.83279        0.63613
H         -1.73451       -2.75424       -1.56045
H         -2.42940       -1.20165       -2.12810
H         -1.34764       -2.13516       -3.16788

--Link1--
%chk=JID_6765.chk
%mem=8GB
%nprocshared=4
# B3LYP/6-311++G(d,p) empiricaldispersion=gd3bj scf=xqc pop=npa geom=check

CID_103022096_JID_6765_Energie_neutraal

0 1

--Link1--
%chk=JID_6765.chk
%mem=8GB
%nprocshared=4
# B3LYP/6-311++G(d,p) empiricaldispersion=gd3bj scf=xqc pop=npa geom=check

CID_103022096_JID_6765_Energie_kation

1 2

--Link1--
%chk=JID_6765.chk
%mem=8GB
%nprocshared=4
# B3LYP/6-311++G(d,p) empiricaldispersion=gd3bj scf=xqc pop=npa geom=check

CID_103022096_JID_6765_Energie_anion

-1 2
