%chk=JID_10731.chk
%mem=8GB
%nprocshared=4
# opt freq B3LYP/6-31G(d) empiricaldispersion=gd3bj scf=xqc

CID_105980605_JID_10731_neutraal

0 1
C          0.92383        0.01787        0.06228
C          0.73619        0.56619        1.47583
C          1.35190        1.96865        1.74947
C          2.89536        1.97183        1.70538
C          3.51634        2.31087        0.35307
C          2.91439        3.57004       -0.25089
C          1.40418        3.44565       -0.37928
C          0.74765        3.14960        0.96423
N         -0.71866        0.54714        1.74582
S         -1.29259        0.30872        3.30548
O         -0.57757        1.17763        4.21167
O         -2.73575        0.31255        3.22241
C         -0.89046       -1.29338        3.80351
C         -0.16367       -1.66149        4.91659
N         -0.08190       -3.02928        4.93584
C         -0.75777       -3.55453        3.85287
C         -1.25056       -2.48125        3.12444
C         -0.86863       -5.01545        3.58438
O         -2.16283       -5.25706        3.05499
C          0.61537       -3.78441        5.95582
H          0.44437        0.64949       -0.68981
H          0.46097       -0.97313       -0.02194
H          1.97861       -0.10563       -0.18837
H          1.21481       -0.15369        2.15240
H          1.11082        2.17957        2.79897
H          3.24576        2.72662        2.42320
H          3.29283        1.01495        2.06416
H          3.39566        1.47877       -0.34608
H          4.59681        2.44935        0.47798
H          3.35484        3.75421       -1.23719
H          3.16236        4.43531        0.37613
H          1.15845        2.66704       -1.10707
H          0.99684        4.38166       -0.77954
H         -0.33105        3.03114        0.82503
H          0.86214        4.04863        1.58658
H         -1.29299        1.21716        1.23816
H          0.29066       -1.05122        5.68774
H         -1.82605       -2.55259        2.20865
H         -0.12387       -5.33120        2.84831
H         -0.75403       -5.62244        4.48629
H         -2.79505       -4.81381        3.64686
H         -0.12517       -4.33862        6.53765
H          1.31739       -4.46422        5.46664
H          1.16349       -3.09902        6.60756

--Link1--
%chk=JID_10731.chk
%mem=8GB
%nprocshared=4
# B3LYP/6-311++G(d,p) empiricaldispersion=gd3bj scf=xqc pop=npa geom=check

CID_105980605_JID_10731_Energie_neutraal

0 1

--Link1--
%chk=JID_10731.chk
%mem=8GB
%nprocshared=4
# B3LYP/6-311++G(d,p) empiricaldispersion=gd3bj scf=xqc pop=npa geom=check

CID_105980605_JID_10731_Energie_kation

1 2

--Link1--
%chk=JID_10731.chk
%mem=8GB
%nprocshared=4
# B3LYP/6-311++G(d,p) empiricaldispersion=gd3bj scf=xqc pop=npa geom=check

CID_105980605_JID_10731_Energie_anion

-1 2
