%chk=JID_2603.chk
%mem=8GB
%nprocshared=4
# opt freq B3LYP/6-31G(d) empiricaldispersion=gd3bj scf=xqc

CID_118480791_JID_2603_neutraal

0 1
C          0.94402       -0.05029        0.06585
C          0.50987       -0.30474        1.48786
C         -0.30562        0.59824        2.07936
C         -0.90185        0.56076        3.46252
C         -0.33696        1.62905        4.30108
N          0.09336        2.47372        4.97186
C          1.03215       -1.55578        2.20289
C          0.07691       -2.75520        2.05668
C          0.27222       -3.55251        0.77099
C          1.72066       -3.99331        0.60341
C          2.67902       -2.81002        0.64223
C          2.49144       -1.95351        1.89443
H          0.48774        0.85493       -0.35075
H          0.65104       -0.87547       -0.58712
H          2.02737        0.08995        0.00903
H         -0.61483        1.47055        1.50067
H         -1.98537        0.70182        3.37164
H         -0.76455       -0.40789        3.95058
H          1.04962       -1.30616        3.27265
H          0.24458       -3.43203        2.90550
H         -0.96878       -2.43238        2.13008
H         -0.04141       -2.95961       -0.09433
H         -0.37513       -4.43702        0.79184
H          1.83601       -4.52930       -0.34550
H          1.98182       -4.69990        1.40091
H          2.54716       -2.20640       -0.26053
H          3.71114       -3.17901        0.61067
H          3.13098       -1.06454        1.83681
H          2.86602       -2.53555        2.74814

--Link1--
%chk=JID_2603.chk
%mem=8GB
%nprocshared=4
# B3LYP/6-311++G(d,p) empiricaldispersion=gd3bj scf=xqc pop=npa geom=check

CID_118480791_JID_2603_Energie_neutraal

0 1

--Link1--
%chk=JID_2603.chk
%mem=8GB
%nprocshared=4
# B3LYP/6-311++G(d,p) empiricaldispersion=gd3bj scf=xqc pop=npa geom=check

CID_118480791_JID_2603_Energie_kation

1 2

--Link1--
%chk=JID_2603.chk
%mem=8GB
%nprocshared=4
# B3LYP/6-311++G(d,p) empiricaldispersion=gd3bj scf=xqc pop=npa geom=check

CID_118480791_JID_2603_Energie_anion

-1 2
