%chk=JID_8010.chk
%mem=8GB
%nprocshared=4
# opt freq B3LYP/6-31G(d) empiricaldispersion=gd3bj scf=xqc

CID_60681835_JID_8010_neutraal

0 1
C          0.95399       -0.08741        0.01559
N         -0.33725       -0.65424       -0.33594
C         -1.42828       -0.32238        0.58991
C         -2.01413        1.07474        0.42300
O         -2.90618        1.27862       -0.40617
C         -1.54307        2.21245        1.27508
C         -2.04627        3.49227        0.99339
C         -1.65706        4.59602        1.75526
C         -0.76094        4.43229        2.80793
C         -0.25433        3.16705        3.09796
C         -0.64310        2.05944        2.33677
C         -0.68398       -0.56589       -1.77088
C         -0.68767        0.84805       -2.38007
O          0.11137        1.73255       -2.06539
N         -1.59019        1.11139       -3.38168
C         -2.65285        0.27324       -3.82001
C         -3.12863        0.34383       -5.24570
C         -2.40383       -0.87500       -4.75838
H          1.26346       -0.44879        1.00283
H          0.95833        1.00462        0.05099
H          1.72924       -0.41406       -0.68640
H         -2.25542       -1.02622        0.42346
H         -1.13703       -0.51601        1.62597
H         -2.74379        3.63850        0.17037
H         -2.05210        5.58161        1.52219
H         -0.45459        5.29125        3.39980
H          0.44875        3.04195        3.91823
H         -0.21818        1.09681        2.59865
H          0.04587       -1.14930       -2.34610
H         -1.64786       -1.06082       -1.92091
H         -1.57001        2.07532       -3.69373
H         -3.42951        0.14963       -3.06689
H         -4.19443        0.26419       -5.42637
H         -2.60907        0.99763       -5.93629
H         -1.39518       -1.04039       -5.11875
H         -2.97731       -1.78240       -4.60886

--Link1--
%chk=JID_8010.chk
%mem=8GB
%nprocshared=4
# B3LYP/6-311++G(d,p) empiricaldispersion=gd3bj scf=xqc pop=npa geom=check

CID_60681835_JID_8010_Energie_neutraal

0 1

--Link1--
%chk=JID_8010.chk
%mem=8GB
%nprocshared=4
# B3LYP/6-311++G(d,p) empiricaldispersion=gd3bj scf=xqc pop=npa geom=check

CID_60681835_JID_8010_Energie_kation

1 2

--Link1--
%chk=JID_8010.chk
%mem=8GB
%nprocshared=4
# B3LYP/6-311++G(d,p) empiricaldispersion=gd3bj scf=xqc pop=npa geom=check

CID_60681835_JID_8010_Energie_anion

-1 2
