%chk=JID_6685.chk
%mem=8GB
%nprocshared=4
# opt freq B3LYP/6-31G(d) empiricaldispersion=gd3bj scf=xqc

CID_102612659_JID_6685_neutraal

0 1
C          1.02386       -0.08430       -0.04821
C          0.22504        0.57400        1.06235
O          0.55432        1.93083        1.34966
C          1.92906        2.30078        1.37547
C          2.75787        1.95065        2.65245
C          2.06096        0.99794        3.61861
N          4.07684        1.46980        2.19951
C          5.16292        1.29848        3.18570
C          5.23348        2.39006        4.26334
C          5.24863       -0.11561        3.76445
N          4.71113       -0.32537        4.99940
C          4.75754       -1.58711        5.47693
C          5.31519       -2.62471        4.76135
N          5.85452       -2.44544        3.53793
C          5.81903       -1.17853        3.04117
C          6.43157       -1.00371        1.68321
H          1.03910        0.54277       -0.94515
H          0.58894       -1.05474       -0.30637
H          2.06036       -0.25706        0.25725
H         -0.83185        0.57742        0.77256
H          0.27769       -0.02550        1.97358
H          2.42299        1.96293        0.45694
H          1.94015        3.39514        1.28317
H          2.89478        2.90498        3.17558
H          2.06557       -0.03176        3.24792
H          2.54680        0.99898        4.59711
H          1.02594        1.30489        3.80050
H          3.95003        0.60029        1.68380
H          6.08613        1.44391        2.61099
H          6.14705        2.28076        4.85959
H          5.25840        3.38596        3.80703
H          4.38943        2.35627        4.95903
H          4.32677       -1.74081        6.45932
H          5.34496       -3.63475        5.15243
H          7.27402       -0.30723        1.72738
H          6.81437       -1.95858        1.30673
H          5.69167       -0.64225        0.96404

--Link1--
%chk=JID_6685.chk
%mem=8GB
%nprocshared=4
# B3LYP/6-311++G(d,p) empiricaldispersion=gd3bj scf=xqc pop=npa geom=check

CID_102612659_JID_6685_Energie_neutraal

0 1

--Link1--
%chk=JID_6685.chk
%mem=8GB
%nprocshared=4
# B3LYP/6-311++G(d,p) empiricaldispersion=gd3bj scf=xqc pop=npa geom=check

CID_102612659_JID_6685_Energie_kation

1 2

--Link1--
%chk=JID_6685.chk
%mem=8GB
%nprocshared=4
# B3LYP/6-311++G(d,p) empiricaldispersion=gd3bj scf=xqc pop=npa geom=check

CID_102612659_JID_6685_Energie_anion

-1 2
