%chk=JID_338.chk
%mem=8GB
%nprocshared=4
# opt freq B3LYP/6-31G(d) empiricaldispersion=gd3bj scf=xqc

CID_147468852_JID_338_neutraal

0 1
C          1.07657        0.05335        0.03593
C          0.85239        1.37984        0.74879
C          1.30845        2.68186        0.02233
C          0.65217        2.82228       -1.35509
C          0.79300        3.84940        0.90845
S          3.16084        2.79336        0.05327
C          3.45115        4.24961       -1.01134
C          3.76419        3.75722       -2.41565
C          4.49958        2.44181       -2.24107
C          3.65831        1.63924       -1.26304
H          0.66135        0.05473       -0.97513
H          0.57923       -0.74926        0.59181
H          2.13605       -0.20721       -0.01059
H         -0.22701        1.45169        0.94236
H          1.32871        1.31854        1.73667
H         -0.43598        2.71106       -1.27040
H          0.82604        3.80859       -1.79569
H          0.98422        2.07727       -2.07975
H          1.22014        3.80754        1.91772
H          1.04006        4.83039        0.49096
H         -0.29819        3.81326        1.01123
H          4.33554        4.74577       -0.59589
H          2.63146        4.96796       -0.98733
H          2.84463        3.59842       -2.98882
H          4.36663        4.48726       -2.96550
H          4.62022        1.91380       -3.19197
H          5.50048        2.62085       -1.82913
H          2.80231        1.20295       -1.77398
H          4.23974        0.82812       -0.81570

--Link1--
%chk=JID_338.chk
%mem=8GB
%nprocshared=4
# B3LYP/6-311++G(d,p) empiricaldispersion=gd3bj scf=xqc pop=npa geom=check

CID_147468852_JID_338_Energie_neutraal

0 1

--Link1--
%chk=JID_338.chk
%mem=8GB
%nprocshared=4
# B3LYP/6-311++G(d,p) empiricaldispersion=gd3bj scf=xqc pop=npa geom=check

CID_147468852_JID_338_Energie_kation

1 2

--Link1--
%chk=JID_338.chk
%mem=8GB
%nprocshared=4
# B3LYP/6-311++G(d,p) empiricaldispersion=gd3bj scf=xqc pop=npa geom=check

CID_147468852_JID_338_Energie_anion

-1 2
