%chk=JID_9965.chk
%mem=8GB
%nprocshared=4
# opt freq B3LYP/6-31G(d) empiricaldispersion=gd3bj scf=xqc

CID_104153266_JID_9965_neutraal

0 1
C          1.00739        0.05116       -0.08560
C          0.44677       -0.02443       -1.50614
C          0.93693       -1.29256       -2.21103
C         -1.06738        0.06738       -1.47774
N         -1.77130       -1.08341       -1.34224
C         -3.11900       -1.03143       -1.28438
C         -3.78994        0.18852       -1.33163
C         -3.07493        1.38243       -1.45983
C         -1.68472        1.31149       -1.53611
C         -3.78257        2.71209       -1.49322
N         -3.45292        3.50443       -0.30898
C         -4.18358        4.76270       -0.30067
N         -3.85973       -2.21198       -1.18261
C         -3.16978       -3.32419       -0.50259
C         -3.27104       -4.51211       -1.45001
C         -4.57150       -4.24218       -2.18230
C         -4.53434       -2.71402       -2.41431
C         -5.96800       -2.18196       -2.50958
C         -3.76995       -2.40550       -3.71507
H          0.64780       -0.77999        0.53177
H          0.70933        0.98307        0.40765
H          2.10194        0.01507       -0.09745
H          0.83405        0.82912       -2.07797
H          0.64240       -2.19921       -1.67026
H          0.52846       -1.36008       -3.22550
H          2.02957       -1.29228       -2.28818
H         -4.87020        0.20473       -1.24092
H         -1.09579        2.22063       -1.61542
H         -3.48199        3.24155       -2.40598
H         -4.86641        2.55257       -1.55492
H         -3.69558        2.96428        0.52170
H         -5.26602        4.59971       -0.27772
H         -3.91126        5.33624        0.59072
H         -3.93143        5.37254       -1.17420
H         -2.12802       -3.14262       -0.21780
H         -3.72000       -3.54166        0.42098
H         -3.27690       -5.46810       -0.91869
H         -2.42707       -4.51739       -2.14890
H         -5.41414       -4.52132       -1.53626
H         -4.65549       -4.81996       -3.10824
H         -5.98992       -1.11648       -2.75869
H         -6.53001       -2.70902       -3.28896
H         -6.50479       -2.30864       -1.56251
H         -2.72487       -2.72961       -3.66676
H         -4.23527       -2.91279       -4.56812
H         -3.77111       -1.33362       -3.94195

--Link1--
%chk=JID_9965.chk
%mem=8GB
%nprocshared=4
# B3LYP/6-311++G(d,p) empiricaldispersion=gd3bj scf=xqc pop=npa geom=check

CID_104153266_JID_9965_Energie_neutraal

0 1

--Link1--
%chk=JID_9965.chk
%mem=8GB
%nprocshared=4
# B3LYP/6-311++G(d,p) empiricaldispersion=gd3bj scf=xqc pop=npa geom=check

CID_104153266_JID_9965_Energie_kation

1 2

--Link1--
%chk=JID_9965.chk
%mem=8GB
%nprocshared=4
# B3LYP/6-311++G(d,p) empiricaldispersion=gd3bj scf=xqc pop=npa geom=check

CID_104153266_JID_9965_Energie_anion

-1 2
