%chk=JID_294.chk
%mem=8GB
%nprocshared=4
# opt freq B3LYP/6-31G(d) empiricaldispersion=gd3bj scf=xqc

CID_150426484_JID_294_neutraal

0 1
C          1.09363        0.03472       -0.00523
C          0.68698        1.32179        0.69493
C          1.13822        2.58782       -0.04061
C          0.58766        2.75182       -1.46840
C         -0.95713        2.71606       -1.58250
N         -1.66581        3.68171       -0.72875
C         -3.11776        3.62859       -0.89308
C         -3.75565        2.44901       -0.17183
N          1.10650        4.04899       -2.03595
O          1.86326        3.86798       -2.99704
H          0.58067       -0.08092       -0.96435
H          0.83289       -0.82860        0.61541
H          2.17317        0.00913       -0.18410
H         -0.39818        1.33019        0.84368
H          1.13476        1.32881        1.69619
H          0.86416        3.45741        0.57146
H          2.23644        2.59364       -0.07948
H          0.98909        1.94844       -2.09971
H         -1.23044        2.90218       -2.62965
H         -1.29174        1.69984       -1.34656
H         -1.42437        3.54417        0.25138
H         -3.53263        4.55168       -0.47249
H         -3.39378        3.62367       -1.95385
H         -3.49982        2.45153        0.89309
H         -4.84597        2.50618       -0.25369
H         -3.44060        1.49225       -0.59885

--Link1--
%chk=JID_294.chk
%mem=8GB
%nprocshared=4
# B3LYP/6-311++G(d,p) empiricaldispersion=gd3bj scf=xqc pop=npa geom=check

CID_150426484_JID_294_Energie_neutraal

0 1

--Link1--
%chk=JID_294.chk
%mem=8GB
%nprocshared=4
# B3LYP/6-311++G(d,p) empiricaldispersion=gd3bj scf=xqc pop=npa geom=check

CID_150426484_JID_294_Energie_kation

1 2

--Link1--
%chk=JID_294.chk
%mem=8GB
%nprocshared=4
# B3LYP/6-311++G(d,p) empiricaldispersion=gd3bj scf=xqc pop=npa geom=check

CID_150426484_JID_294_Energie_anion

-1 2
