%chk=JID_8497.chk
%mem=8GB
%nprocshared=4
# opt freq B3LYP/6-31G(d) empiricaldispersion=gd3bj scf=xqc

CID_39096203_JID_8497_neutraal

0 1
C          2.54100        1.06400        0.00800
C          1.27855        0.25240       -0.00400
C          0.03315        0.88075        0.13225
C         -1.16533        0.14542        0.09114
C         -1.10624       -1.24518       -0.11837
C          0.14101       -1.86996       -0.25813
C          1.32242       -1.12851       -0.20619
C         -2.30704       -2.06531       -0.21989
C         -2.86770       -3.00320        0.63216
C         -4.00912       -3.46837       -0.06506
N         -4.16638       -2.87678       -1.24979
N         -3.11721       -2.04335       -1.32545
C         -2.39914       -3.43495        1.98353
C         -3.03024       -2.63138        3.11729
C         -4.45731       -3.03453        3.36416
O         -4.97729       -4.10648        3.10389
O         -5.15692       -2.07213        3.99626
C         -2.47363        0.87251        0.24977
H          2.70467        1.51554       -0.97531
H          2.48207        1.85727        0.76059
H          3.40791        0.44300        0.25695
H         -0.00267        1.95984        0.27522
H          0.19811       -2.94434       -0.42235
H          2.27506       -1.63841       -0.33008
H         -4.73191       -4.21125        0.25177
H         -3.00293       -1.48292       -2.16264
H         -2.59462       -4.50698        2.11094
H         -1.31002       -3.31772        2.03886
H         -2.47981       -2.81078        4.04745
H         -2.99244       -1.55922        2.89307
H         -6.05057       -2.46006        4.10625
H         -2.31927        1.90118        0.59311
H         -3.00193        0.91416       -0.70780
H         -3.10469        0.37892        0.99577

--Link1--
%chk=JID_8497.chk
%mem=8GB
%nprocshared=4
# B3LYP/6-311++G(d,p) empiricaldispersion=gd3bj scf=xqc pop=npa geom=check

CID_39096203_JID_8497_Energie_neutraal

0 1

--Link1--
%chk=JID_8497.chk
%mem=8GB
%nprocshared=4
# B3LYP/6-311++G(d,p) empiricaldispersion=gd3bj scf=xqc pop=npa geom=check

CID_39096203_JID_8497_Energie_kation

1 2

--Link1--
%chk=JID_8497.chk
%mem=8GB
%nprocshared=4
# B3LYP/6-311++G(d,p) empiricaldispersion=gd3bj scf=xqc pop=npa geom=check

CID_39096203_JID_8497_Energie_anion

-1 2
