%chk=JID_2427.chk
%mem=8GB
%nprocshared=4
# opt freq B3LYP/6-31G(d) empiricaldispersion=gd3bj scf=xqc

CID_131417642_JID_2427_neutraal

0 1
C         -0.81500       -1.41300       -0.48400
C         -1.47145       -0.08271       -0.84899
C         -1.68397        0.90897        0.30058
C         -0.44328        1.64949        0.80458
C          0.34173        2.29329       -0.30006
C          1.48971        1.84384       -0.84547
C          2.21817        0.59813       -0.38462
C          1.64710       -0.72899       -0.90801
C          0.62630       -1.39375        0.02435
C          2.17048        2.64545       -1.94840
C          2.09377        2.00513       -3.34311
N          0.74011        2.04155       -3.89468
H         -0.84975       -2.05442       -1.37471
H         -1.43617       -1.91638        0.26793
H         -0.94189        0.38573       -1.68256
H         -2.46688       -0.32392       -1.24675
H         -2.16198        0.39655        1.14441
H         -2.40658        1.66127       -0.04400
H          0.17781        0.99364        1.41614
H         -0.76658        2.44131        1.49275
H         -0.09946        3.20942       -0.69372
H          2.29691        0.58574        0.70920
H          3.25966        0.66874       -0.72680
H          2.49668       -1.42115       -0.98866
H          1.25221       -0.62705       -1.92456
H          0.67452       -0.99016        1.03882
H          0.92364       -2.44608        0.13589
H          1.75566        3.66124       -1.99783
H          3.22594        2.77989       -1.67826
H          2.75400        2.55399       -4.02325
H          2.45057        0.97030       -3.31328
H          0.70117        1.46917       -4.73605
H          0.09842        1.61555       -3.22626

--Link1--
%chk=JID_2427.chk
%mem=8GB
%nprocshared=4
# B3LYP/6-311++G(d,p) empiricaldispersion=gd3bj scf=xqc pop=npa geom=check

CID_131417642_JID_2427_Energie_neutraal

0 1

--Link1--
%chk=JID_2427.chk
%mem=8GB
%nprocshared=4
# B3LYP/6-311++G(d,p) empiricaldispersion=gd3bj scf=xqc pop=npa geom=check

CID_131417642_JID_2427_Energie_kation

1 2

--Link1--
%chk=JID_2427.chk
%mem=8GB
%nprocshared=4
# B3LYP/6-311++G(d,p) empiricaldispersion=gd3bj scf=xqc pop=npa geom=check

CID_131417642_JID_2427_Energie_anion

-1 2
