%chk=JID_4154.chk
%mem=8GB
%nprocshared=4
# opt freq B3LYP/6-31G(d) empiricaldispersion=gd3bj scf=xqc

CID_115726318_JID_4154_neutraal

0 1
C          1.02816       -0.08230       -0.04933
C          0.30015        0.92540       -0.92948
C          0.99065        1.13329       -2.28262
C          1.03957       -0.12314       -3.16226
C          1.16657        0.38932       -4.59757
C          1.07630        1.91219       -4.51120
C          0.34787        2.20801       -3.19355
N         -1.09840        2.01707       -3.28794
C         -1.87327        3.21672       -3.58284
C         -1.89151        3.60642       -5.04939
C         -2.15611        2.54528       -6.11342
C         -3.22746        3.53282       -5.78240
C         -0.99167        4.77000       -5.39670
O         -1.55477        5.97510       -4.89415
H          1.02665       -1.07966       -0.49938
H          0.53565       -0.15476        0.92562
H          2.06673        0.22035        0.11766
H         -0.73170        0.58210       -1.06661
H          0.25046        1.88485       -0.40067
H          2.02678        1.44663       -2.08437
H          1.88338       -0.76760       -2.89440
H          0.12490       -0.71916       -3.06073
H          0.35323       -0.01270       -5.21229
H          2.11003        0.07765       -5.05727
H          0.60030        2.33671       -5.39723
H          2.08962        2.33217       -4.46537
H          0.59204        3.20645       -2.81308
H         -1.34385        1.25685       -3.91432
H         -2.90117        3.01531       -3.25757
H         -1.54386        4.05424       -2.95544
H         -1.65539        2.63642       -7.07146
H         -2.32977        1.51611       -5.82104
H         -4.09954        3.16930       -5.24867
H         -3.46431        4.27991       -6.53205
H          0.00172        4.65099       -4.95565
H         -0.86323        4.87975       -6.47905
H         -2.43364        6.06683       -5.29834

--Link1--
%chk=JID_4154.chk
%mem=8GB
%nprocshared=4
# B3LYP/6-311++G(d,p) empiricaldispersion=gd3bj scf=xqc pop=npa geom=check

CID_115726318_JID_4154_Energie_neutraal

0 1

--Link1--
%chk=JID_4154.chk
%mem=8GB
%nprocshared=4
# B3LYP/6-311++G(d,p) empiricaldispersion=gd3bj scf=xqc pop=npa geom=check

CID_115726318_JID_4154_Energie_kation

1 2

--Link1--
%chk=JID_4154.chk
%mem=8GB
%nprocshared=4
# B3LYP/6-311++G(d,p) empiricaldispersion=gd3bj scf=xqc pop=npa geom=check

CID_115726318_JID_4154_Energie_anion

-1 2
