%chk=JID_2071.chk
%mem=8GB
%nprocshared=4
# opt freq B3LYP/6-31G(d) empiricaldispersion=gd3bj scf=xqc

CID_103389362_JID_2071_neutraal

0 1
C          1.08144       -0.05771       -0.00601
C          0.62748       -0.94473       -1.17030
C          1.30189       -2.34348       -1.08061
N          0.64481       -3.22259       -0.09156
N         -0.84345       -1.05499       -1.06563
C         -1.51000       -1.05366       -2.37269
C         -1.23484       -2.25447       -3.21199
N         -0.43985       -2.30906       -4.26453
N         -0.45167       -3.59653       -4.74713
C         -1.25363       -4.29878       -3.98275
N         -1.77173       -3.50007       -3.01096
C         -2.69201       -3.90661       -1.98448
H          0.80266       -0.47687        0.96712
H          0.63583        0.94086       -0.08102
H          2.16978        0.06613       -0.01850
H          0.93528       -0.45077       -2.10032
H          1.25344       -2.84177       -2.05344
H          2.36283       -2.24020       -0.82644
H          1.16183       -4.10231       -0.06349
H          0.76081       -2.80627        0.83342
H         -1.01970       -1.94544       -0.59091
H         -2.58988       -0.97715       -2.20102
H         -1.23887       -0.14610       -2.92596
H         -1.47954       -5.34980       -4.09235
H         -2.16134       -3.94175       -1.03096
H         -3.51699       -3.19169       -1.94059
H         -3.08729       -4.89798       -2.22181

--Link1--
%chk=JID_2071.chk
%mem=8GB
%nprocshared=4
# B3LYP/6-311++G(d,p) empiricaldispersion=gd3bj scf=xqc pop=npa geom=check

CID_103389362_JID_2071_Energie_neutraal

0 1

--Link1--
%chk=JID_2071.chk
%mem=8GB
%nprocshared=4
# B3LYP/6-311++G(d,p) empiricaldispersion=gd3bj scf=xqc pop=npa geom=check

CID_103389362_JID_2071_Energie_kation

1 2

--Link1--
%chk=JID_2071.chk
%mem=8GB
%nprocshared=4
# B3LYP/6-311++G(d,p) empiricaldispersion=gd3bj scf=xqc pop=npa geom=check

CID_103389362_JID_2071_Energie_anion

-1 2
