%chk=JID_3073.chk
%mem=8GB
%nprocshared=4
# opt freq B3LYP/6-31G(d) empiricaldispersion=gd3bj scf=xqc

CID_82682633_JID_3073_neutraal

0 1
C          0.90378       -0.02711       -0.00252
C          0.38960        0.73480       -1.21507
C          0.85712        0.12684       -2.54013
C          0.17065       -1.19145       -2.90224
N         -1.18336       -0.97097       -3.37520
C         -1.72451       -1.16720       -4.60744
O         -2.90107       -0.85008       -4.79041
C         -0.89402       -1.75149       -5.73322
C         -0.27177       -0.66596       -6.61815
C          1.22747       -0.39147       -6.36580
C          2.08951       -1.59765       -6.76130
C          1.72534        0.84835       -7.13841
N          1.13856        2.08700       -6.63767
H          0.49962       -1.04240        0.03832
H          0.60483        0.48627        0.91709
H          1.99656       -0.09039       -0.01260
H         -0.70375        0.79357       -1.17980
H          0.76315        1.76415       -1.15522
H          0.68042        0.86033       -3.33631
H          1.94048       -0.03671       -2.49315
H          0.75759       -1.70663       -3.66351
H          0.10455       -1.86142       -2.04045
H         -1.85243       -0.58533       -2.71889
H         -0.17552       -2.47972       -5.35527
H         -1.59548       -2.33685       -6.34336
H         -0.38783       -0.97040       -7.66698
H         -0.85124        0.25683       -6.50595
H          1.38639       -0.20578       -5.30038
H          1.96149       -1.84620       -7.82015
H          3.15101       -1.38641       -6.59087
H          1.84274       -2.48466       -6.17157
H          2.81343        0.93144       -7.03575
H          1.50716        0.74604       -8.20767
H          1.52331        2.87545       -7.15738
H          0.13592        2.10099       -6.82033

--Link1--
%chk=JID_3073.chk
%mem=8GB
%nprocshared=4
# B3LYP/6-311++G(d,p) empiricaldispersion=gd3bj scf=xqc pop=npa geom=check

CID_82682633_JID_3073_Energie_neutraal

0 1

--Link1--
%chk=JID_3073.chk
%mem=8GB
%nprocshared=4
# B3LYP/6-311++G(d,p) empiricaldispersion=gd3bj scf=xqc pop=npa geom=check

CID_82682633_JID_3073_Energie_kation

1 2

--Link1--
%chk=JID_3073.chk
%mem=8GB
%nprocshared=4
# B3LYP/6-311++G(d,p) empiricaldispersion=gd3bj scf=xqc pop=npa geom=check

CID_82682633_JID_3073_Energie_anion

-1 2
