%chk=JID_7577.chk
%mem=8GB
%nprocshared=4
# opt freq B3LYP/6-31G(d) empiricaldispersion=gd3bj scf=xqc

CID_120397299_JID_7577_neutraal

0 1
C          0.93204        0.03500       -0.06448
C          1.35032        1.10550       -1.06264
C          2.22338        0.55491       -2.19012
N          1.38900       -0.24201       -3.13866
C          0.99699        0.54099       -4.34843
C          1.96115        0.51105       -5.50890
O          1.80229       -0.10809       -6.54975
O          3.08695        1.21891       -5.28929
S          1.93524       -1.83355       -3.38754
O          3.10895       -1.75855       -4.23253
O          2.04070       -2.45608       -2.08107
C          0.61680       -2.65509       -4.29442
C         -0.71383       -2.51528       -3.65517
N         -1.72525       -1.95360       -4.33405
O         -2.81605       -1.98753       -3.48462
C         -2.45986       -2.57801       -2.31897
C         -1.14095       -2.94217       -2.37488
H          0.30020       -0.72284       -0.53640
H          0.35995        0.48542        0.75287
H          1.80593       -0.46232        0.36802
H          0.45664        1.59205       -1.47063
H          1.91733        1.87392       -0.52413
H          2.70040        1.39059       -2.71357
H          3.04027       -0.04252       -1.77050
H          0.02884        0.17806       -4.70692
H          0.81842        1.59027       -4.08320
H          3.66473        0.98576       -6.04711
H          0.62423       -2.25756       -5.31356
H          0.89739       -3.71259       -4.35036
H         -3.24020       -2.66029       -1.57719
H         -0.56606       -3.43170       -1.60159

--Link1--
%chk=JID_7577.chk
%mem=8GB
%nprocshared=4
# B3LYP/6-311++G(d,p) empiricaldispersion=gd3bj scf=xqc pop=npa geom=check

CID_120397299_JID_7577_Energie_neutraal

0 1

--Link1--
%chk=JID_7577.chk
%mem=8GB
%nprocshared=4
# B3LYP/6-311++G(d,p) empiricaldispersion=gd3bj scf=xqc pop=npa geom=check

CID_120397299_JID_7577_Energie_kation

1 2

--Link1--
%chk=JID_7577.chk
%mem=8GB
%nprocshared=4
# B3LYP/6-311++G(d,p) empiricaldispersion=gd3bj scf=xqc pop=npa geom=check

CID_120397299_JID_7577_Energie_anion

-1 2
