%chk=JID_5193.chk
%mem=8GB
%nprocshared=4
# opt freq B3LYP/6-31G(d) empiricaldispersion=gd3bj scf=xqc

CID_12298892_JID_5193_neutraal

0 1
C          0.93684       -0.03015       -0.07143
C          0.55911       -0.71218       -1.38610
C          0.48836       -2.24840       -1.23302
O         -0.61045       -2.62148       -0.38891
C         -0.28745       -3.10778        0.84622
C          0.73976       -4.01905        1.09137
C          0.99267       -4.46571        2.39285
C          0.22500       -3.96572        3.45101
C         -0.84797       -3.10925        3.19846
C         -1.10555       -2.68667        1.89516
O          0.46733       -4.30972        4.75464
C          1.39335       -3.38425        5.32864
O          2.04404       -5.33649        2.50925
C          1.81735       -6.42047        3.40683
N         -0.71171       -0.14432       -1.86341
H          1.86955       -0.44436        0.32608
H          0.16100       -0.14576        0.69227
H          1.09095        1.04417       -0.22397
H          1.33361       -0.47900       -2.12602
H          0.30111       -2.70309       -2.21307
H          1.46094       -2.61835       -0.89188
H          1.33949       -4.42026        0.28063
H         -1.47136       -2.75923        4.01621
H         -1.93205       -2.00848        1.69969
H          2.34000       -3.36910        4.77711
H          0.96412       -2.37730        5.37694
H          1.60272       -3.71216        6.35114
H          2.14782       -6.15533        4.41499
H          0.77402       -6.75554        3.40858
H          2.43342       -7.26054        3.07113
H         -0.97362       -0.59738       -2.73877
H         -1.44315       -0.41831       -1.20248

--Link1--
%chk=JID_5193.chk
%mem=8GB
%nprocshared=4
# B3LYP/6-311++G(d,p) empiricaldispersion=gd3bj scf=xqc pop=npa geom=check

CID_12298892_JID_5193_Energie_neutraal

0 1

--Link1--
%chk=JID_5193.chk
%mem=8GB
%nprocshared=4
# B3LYP/6-311++G(d,p) empiricaldispersion=gd3bj scf=xqc pop=npa geom=check

CID_12298892_JID_5193_Energie_kation

1 2

--Link1--
%chk=JID_5193.chk
%mem=8GB
%nprocshared=4
# B3LYP/6-311++G(d,p) empiricaldispersion=gd3bj scf=xqc pop=npa geom=check

CID_12298892_JID_5193_Energie_anion

-1 2
