%chk=JID_5628.chk
%mem=8GB
%nprocshared=4
# opt freq B3LYP/6-31G(d) empiricaldispersion=gd3bj scf=xqc

CID_115919419_JID_5628_neutraal

0 1
C          1.00052       -0.07118       -0.07023
C          0.71149        0.15696        1.41008
C          0.98983        1.59347        1.90563
C          0.21182        2.67058        1.10235
C         -1.30308        2.52529        1.07274
C          0.67605        1.74349        3.43374
N          1.25071        0.81044        4.42464
C          2.64649        0.39214        4.26209
C          3.53404        1.26634        5.15009
C          4.32279        2.33436        4.40654
N          3.39044        3.45527        4.28318
C          2.70695        3.49874        5.58302
C          2.56095        2.04342        6.03686
C          1.20197        1.39129        5.77639
O          2.37797        1.90367        1.66996
H          0.32862        0.51020       -0.70770
H          0.85460       -1.12766       -0.31874
H          2.03280        0.19113       -0.32101
H         -0.32735       -0.12267        1.62022
H          1.33918       -0.55302        1.95963
H          0.46008        3.66229        1.50480
H          0.58376        2.69778        0.06988
H         -1.73883        2.59970        2.07243
H         -1.73857        3.32732        0.46723
H         -1.61106        1.57539        0.62754
H          0.91778        2.77602        3.70383
H         -0.40950        1.65538        3.56237
H          2.70283       -0.63293        4.65460
H          3.01069        0.30430        3.23828
H          4.20659        0.63638        5.74369
H          4.68617        1.99830        3.43126
H          5.19129        2.64311        5.00152
H          3.90112        4.32467        4.12537
H          1.75213        4.02853        5.51870
H          3.33706        4.04149        6.29885
H          2.82477        1.95865        7.09742
H          0.35916        2.07391        5.93498
H          1.06590        0.56463        6.48593
H          2.64228        2.56242        2.34558

--Link1--
%chk=JID_5628.chk
%mem=8GB
%nprocshared=4
# B3LYP/6-311++G(d,p) empiricaldispersion=gd3bj scf=xqc pop=npa geom=check

CID_115919419_JID_5628_Energie_neutraal

0 1

--Link1--
%chk=JID_5628.chk
%mem=8GB
%nprocshared=4
# B3LYP/6-311++G(d,p) empiricaldispersion=gd3bj scf=xqc pop=npa geom=check

CID_115919419_JID_5628_Energie_kation

1 2

--Link1--
%chk=JID_5628.chk
%mem=8GB
%nprocshared=4
# B3LYP/6-311++G(d,p) empiricaldispersion=gd3bj scf=xqc pop=npa geom=check

CID_115919419_JID_5628_Energie_anion

-1 2
