%chk=JID_8979.chk
%mem=8GB
%nprocshared=4
# opt freq B3LYP/6-31G(d) empiricaldispersion=gd3bj scf=xqc

CID_115238041_JID_8979_neutraal

0 1
C         -0.71700        1.22600        0.24100
C          0.71545        1.17467       -0.31111
O          1.39394       -0.01959        0.09554
C          0.67364       -1.18136       -0.33365
C         -0.76416       -1.20561        0.22697
N         -1.51658        0.03993       -0.12103
C         -0.75337       -1.48214        1.75742
N         -2.12075       -1.40278        2.29334
C         -2.16760       -1.35564        3.75317
C         -1.55689       -0.10610        4.35475
C         -2.10592        1.15853        4.06697
C         -1.46046        2.27261        4.60919
C         -0.33549        2.18497        5.42115
C          0.19104        0.92365        5.72646
C         -0.42737       -0.21207        5.18520
N          0.09227        3.43360        5.80345
C         -0.74528        4.27189        5.23836
N         -1.70113        3.61926        4.51214
H         -0.68507        1.31621        1.33168
H         -1.22307        2.12204       -0.13391
H          0.71849        1.23294       -1.40599
H          1.28843        2.02680        0.06840
H          1.23163       -2.06122        0.00390
H          0.66255       -1.20271       -1.43029
H         -1.29703       -2.03980       -0.24777
H         -1.64363        0.04257       -1.13373
H         -0.34677       -2.48266        1.94560
H         -0.08971       -0.76068        2.24567
H         -2.54866       -0.56544        1.89167
H         -3.21683       -1.40342        4.06971
H         -1.69556       -2.25632        4.16491
H         -2.97825        1.26252        3.43017
H          1.06715        0.83834        6.35931
H         -0.00459       -1.18959        5.40966
H         -0.71110        5.35024        5.31736
H         -2.44859        4.05202        3.99054

--Link1--
%chk=JID_8979.chk
%mem=8GB
%nprocshared=4
# B3LYP/6-311++G(d,p) empiricaldispersion=gd3bj scf=xqc pop=npa geom=check

CID_115238041_JID_8979_Energie_neutraal

0 1

--Link1--
%chk=JID_8979.chk
%mem=8GB
%nprocshared=4
# B3LYP/6-311++G(d,p) empiricaldispersion=gd3bj scf=xqc pop=npa geom=check

CID_115238041_JID_8979_Energie_kation

1 2

--Link1--
%chk=JID_8979.chk
%mem=8GB
%nprocshared=4
# B3LYP/6-311++G(d,p) empiricaldispersion=gd3bj scf=xqc pop=npa geom=check

CID_115238041_JID_8979_Energie_anion

-1 2
