%chk=JID_9867.chk
%mem=8GB
%nprocshared=4
# opt freq B3LYP/6-31G(d) empiricaldispersion=gd3bj scf=xqc

CID_61793569_JID_9867_neutraal

0 1
C          1.04342        0.01377       -0.08903
C          1.60377        1.19850        0.67724
N          1.79269        2.35993       -0.16981
C          0.96076        3.43491       -0.28280
C          1.54518        4.29384       -1.19573
C          2.73039        3.61901       -1.57427
N          2.88653        2.45183       -0.94630
C          1.00742        5.61385       -1.67954
C          2.11961        6.55248       -2.16410
N          0.01334        5.46089       -2.73877
C         -0.96767        6.34504       -3.01089
C         -1.30545        7.48264       -2.32469
N         -2.36078        8.03002       -2.99976
N         -2.73275        7.31727       -4.08866
C         -1.88245        6.28441       -4.08293
C         -3.07883        9.24134       -2.65578
C         -2.69841       10.38476       -3.56540
O         -2.23979       11.44594       -3.15108
N         -2.96049       10.20826       -4.89583
H          0.07550        0.25833       -0.53936
H          0.90350       -0.84031        0.58065
H          1.71868       -0.29168       -0.89527
H          0.92570        1.48367        1.48897
H          2.57441        0.95215        1.12151
H          0.03528        3.50245        0.27234
H          3.48839        3.92964       -2.28228
H          0.53761        6.08717       -0.80619
H          2.60076        6.17112       -3.07233
H          1.72430        7.54619       -2.40091
H          2.89296        6.67723       -1.39795
H          0.18840        4.67049       -3.35385
H         -0.90115        7.94886       -1.43821
H         -1.96121        5.53468       -4.85869
H         -4.15214        9.03953       -2.73012
H         -2.83995        9.50041       -1.61941
H         -3.05123        9.25799       -5.25438
H         -2.62125       10.91745       -5.53202

--Link1--
%chk=JID_9867.chk
%mem=8GB
%nprocshared=4
# B3LYP/6-311++G(d,p) empiricaldispersion=gd3bj scf=xqc pop=npa geom=check

CID_61793569_JID_9867_Energie_neutraal

0 1

--Link1--
%chk=JID_9867.chk
%mem=8GB
%nprocshared=4
# B3LYP/6-311++G(d,p) empiricaldispersion=gd3bj scf=xqc pop=npa geom=check

CID_61793569_JID_9867_Energie_kation

1 2

--Link1--
%chk=JID_9867.chk
%mem=8GB
%nprocshared=4
# B3LYP/6-311++G(d,p) empiricaldispersion=gd3bj scf=xqc pop=npa geom=check

CID_61793569_JID_9867_Energie_anion

-1 2
