%chk=JID_7069.chk
%mem=8GB
%nprocshared=4
# opt freq B3LYP/6-31G(d) empiricaldispersion=gd3bj scf=xqc

CID_147495277_JID_7069_neutraal

0 1
C         -2.35000       -0.84900        0.40900
C         -1.81761       -1.78210       -0.68250
C         -0.47495       -2.42404       -0.35170
C          0.75827       -1.57742       -0.69288
C          1.13098       -0.50475        0.33646
C          2.64689       -0.22472        0.29110
C          2.79589        1.12665        0.98165
C          1.65018        1.90535        0.34399
C          0.46767        0.90573        0.30623
C         -0.52088        1.27857       -0.81737
C         -1.92635        1.61113       -0.29610
C         -2.91513        0.44851       -0.16431
C          4.20038        1.72922        0.86801
C          4.74020        1.98430       -0.53907
C          5.95925        2.86752       -0.29589
C          5.65006        3.66498        0.97064
C          4.33784        3.10705        1.51818
H         -1.61416       -0.64710        1.19124
H         -3.17026       -1.37570        0.91511
H         -2.55145       -2.59039       -0.80498
H         -1.76456       -1.29463       -1.66158
H         -0.40354       -3.34010       -0.95374
H         -0.44562       -2.75078        0.69446
H          0.68785       -1.16313       -1.70375
H          1.59483       -2.28972       -0.73850
H          0.93066       -0.92533        1.33318
H          2.99210       -0.17951       -0.74887
H          3.21628       -1.00805        0.80295
H          2.57283        1.00059        2.05096
H          1.91507        2.22226       -0.67016
H          1.38687        2.80021        0.91738
H         -0.04338        1.01555        1.27298
H         -0.57030        0.53980       -1.61641
H         -0.16501        2.19263       -1.31114
H         -2.38085        2.34052       -0.97994
H         -1.85061        2.13073        0.66745
H         -3.37906        0.25505       -1.13972
H         -3.73159        0.78961        0.48553
H          4.89546        1.04319        1.37449
H          5.01295        1.06197       -1.06033
H          4.01966        2.52641       -1.16007
H          6.16689        3.51773       -1.15133
H          6.84724        2.24556       -0.13166
H          5.55971        4.73568        0.75933
H          6.45923        3.54240        1.69924
H          3.51640        3.77051        1.22508
H          4.34511        3.04924        2.61117

--Link1--
%chk=JID_7069.chk
%mem=8GB
%nprocshared=4
# B3LYP/6-311++G(d,p) empiricaldispersion=gd3bj scf=xqc pop=npa geom=check

CID_147495277_JID_7069_Energie_neutraal

0 1

--Link1--
%chk=JID_7069.chk
%mem=8GB
%nprocshared=4
# B3LYP/6-311++G(d,p) empiricaldispersion=gd3bj scf=xqc pop=npa geom=check

CID_147495277_JID_7069_Energie_kation

1 2

--Link1--
%chk=JID_7069.chk
%mem=8GB
%nprocshared=4
# B3LYP/6-311++G(d,p) empiricaldispersion=gd3bj scf=xqc pop=npa geom=check

CID_147495277_JID_7069_Energie_anion

-1 2
