%chk=JID_7766.chk
%mem=8GB
%nprocshared=4
# opt freq B3LYP/6-31G(d) empiricaldispersion=gd3bj scf=xqc

CID_89153431_JID_7766_neutraal

0 1
C          0.90126       -0.00245        0.01563
C          0.42490       -1.44007       -0.14549
C          0.59888       -2.28826        1.12220
C         -0.18818       -1.88652        2.39679
C         -1.73416       -1.98672        2.63482
C         -2.27822       -3.42270        2.51950
C         -2.03878       -1.54394        4.11259
C         -1.48920       -0.19850        4.57437
S         -2.68316       -0.93225        1.44996
O         -2.15098        0.41002        1.44423
O         -2.86621       -1.66859        0.21816
N         -4.23238       -0.88789        2.10937
C         -4.74105        0.41698        2.54703
S          0.66950       -4.05156        0.74953
O          1.86201       -4.33560       -0.01577
O          0.32840       -4.83248        1.91623
O         -0.58162       -4.16704       -0.25834
H          0.34091        0.53600        0.78202
H          0.78109        0.53943       -0.92805
H          1.96183        0.02784        0.28571
H         -0.60472       -1.45298       -0.49899
H          1.01381       -1.88218       -0.95958
H          1.64858       -2.12138        1.41875
H          0.27940       -2.44706        3.22031
H          0.09312       -0.84232        2.57772
H         -1.74976       -4.10405        3.19351
H         -3.33907       -3.46526        2.79426
H         -2.21561       -3.81354        1.50483
H         -3.11972       -1.54987        4.29406
H         -1.62798       -2.30241        4.79365
H         -1.80261        0.62514        3.93166
H         -1.85381        0.01800        5.58449
H         -0.39674       -0.20529        4.62667
H         -4.87178       -1.39198        1.48979
H         -4.85496        1.09037        1.69320
H         -5.72883        0.27392        2.99525
H         -4.09195        0.86529        3.30171
H         -1.02379       -5.03064       -0.11923

--Link1--
%chk=JID_7766.chk
%mem=8GB
%nprocshared=4
# B3LYP/6-311++G(d,p) empiricaldispersion=gd3bj scf=xqc pop=npa geom=check

CID_89153431_JID_7766_Energie_neutraal

0 1

--Link1--
%chk=JID_7766.chk
%mem=8GB
%nprocshared=4
# B3LYP/6-311++G(d,p) empiricaldispersion=gd3bj scf=xqc pop=npa geom=check

CID_89153431_JID_7766_Energie_kation

1 2

--Link1--
%chk=JID_7766.chk
%mem=8GB
%nprocshared=4
# B3LYP/6-311++G(d,p) empiricaldispersion=gd3bj scf=xqc pop=npa geom=check

CID_89153431_JID_7766_Energie_anion

-1 2
