%chk=JID_9585.chk
%mem=8GB
%nprocshared=4
# opt freq B3LYP/6-31G(d) empiricaldispersion=gd3bj scf=xqc

CID_72224596_JID_9585_neutraal

0 1
C          0.93257        0.07361        0.00597
C          0.11936       -0.29756        1.26406
C          0.23399        0.91838        2.22584
C         -1.38231       -0.39848        0.91745
C          0.67328       -1.60679        1.86295
C          0.54199       -2.88413        1.28690
N          1.04666       -4.02800        1.80698
C          1.72913       -3.93456        2.96468
C          1.95030       -2.73898        3.61064
C          1.40564       -1.57944        3.06845
O          2.64140       -2.66536        4.78630
C          4.06284       -2.83048        4.58342
C          4.85626       -1.57902        4.31762
C          4.92638       -2.23697        5.66394
N         -0.12073       -3.14260        0.07062
S         -1.54420       -4.01779        0.16372
O         -2.20289       -3.76976        1.42741
O         -2.22927       -3.73964       -1.08399
C         -0.98484       -5.70799        0.09090
H          0.58621        1.02234       -0.42085
H          0.85968       -0.67599       -0.78595
H          1.99709        0.18677        0.24451
H         -0.20253        1.82053        1.77954
H         -0.29416        0.73525        3.16906
H          1.27780        1.16303        2.45478
H         -1.58207       -1.02748        0.04868
H         -1.95712       -0.79331        1.76299
H         -1.79799        0.58532        0.66714
H          2.10185       -4.87109        3.36565
H          1.58021       -0.65889        3.61627
H          4.41848       -3.76122        4.14932
H          5.71718       -1.65797        3.66457
H          4.32562       -0.63745        4.24233
H          4.43549       -1.74635        6.49646
H          5.83760       -2.75962        5.92871
H         -0.18864       -2.39919       -0.61303
H         -0.32607       -5.82664       -0.77130
H         -0.47715       -5.97051        1.01871
H         -1.86585       -6.34260       -0.03148

--Link1--
%chk=JID_9585.chk
%mem=8GB
%nprocshared=4
# B3LYP/6-311++G(d,p) empiricaldispersion=gd3bj scf=xqc pop=npa geom=check

CID_72224596_JID_9585_Energie_neutraal

0 1

--Link1--
%chk=JID_9585.chk
%mem=8GB
%nprocshared=4
# B3LYP/6-311++G(d,p) empiricaldispersion=gd3bj scf=xqc pop=npa geom=check

CID_72224596_JID_9585_Energie_kation

1 2

--Link1--
%chk=JID_9585.chk
%mem=8GB
%nprocshared=4
# B3LYP/6-311++G(d,p) empiricaldispersion=gd3bj scf=xqc pop=npa geom=check

CID_72224596_JID_9585_Energie_anion

-1 2
