%chk=JID_5494.chk
%mem=8GB
%nprocshared=4
# opt freq B3LYP/6-31G(d) empiricaldispersion=gd3bj scf=xqc

CID_68149975_JID_5494_neutraal

0 1
C          1.06260        0.04241        0.06545
C          0.97537       -1.45972        0.28495
C          1.37988       -1.89246        1.69576
C          0.52297       -1.32453        2.83218
C         -0.97836       -1.62747        2.75075
C         -1.33762       -3.10967        2.71473
C         -0.98004       -3.80373        4.00380
O         -1.67643       -3.79367        5.00901
O          0.23173       -4.40922        3.89621
C          0.71775       -4.99427        5.10314
C          0.25695       -6.44442        5.24287
C          1.25677       -7.24342        4.41323
C          2.60378       -6.60009        4.71420
C          2.21730       -5.16268        4.94829
O          3.02803       -4.24457        4.99977
H          0.33340        0.58049        0.67812
H          0.85518        0.28142       -0.98258
H          2.06225        0.41744        0.30652
H         -0.03735       -1.80653        0.05284
H          1.64273       -1.95435       -0.43123
H          1.37106       -2.98745        1.74095
H          2.42174       -1.59550        1.87120
H          0.91680       -1.70351        3.78327
H          0.65400       -0.23655        2.87465
H         -1.46462       -1.16192        3.61764
H         -1.40204       -1.13913        1.86573
H         -2.41919       -3.22620        2.57513
H         -0.87287       -3.62726        1.86913
H          0.49945       -4.39182        5.99142
H         -0.76608       -6.60491        4.88996
H          0.31993       -6.75889        6.29160
H          1.02207       -7.14442        3.34621
H          1.24556       -8.30841        4.66288
H          3.29582       -6.69397        3.87472
H          3.04438       -7.00320        5.63037

--Link1--
%chk=JID_5494.chk
%mem=8GB
%nprocshared=4
# B3LYP/6-311++G(d,p) empiricaldispersion=gd3bj scf=xqc pop=npa geom=check

CID_68149975_JID_5494_Energie_neutraal

0 1

--Link1--
%chk=JID_5494.chk
%mem=8GB
%nprocshared=4
# B3LYP/6-311++G(d,p) empiricaldispersion=gd3bj scf=xqc pop=npa geom=check

CID_68149975_JID_5494_Energie_kation

1 2

--Link1--
%chk=JID_5494.chk
%mem=8GB
%nprocshared=4
# B3LYP/6-311++G(d,p) empiricaldispersion=gd3bj scf=xqc pop=npa geom=check

CID_68149975_JID_5494_Energie_anion

-1 2
