%chk=JID_10347.chk
%mem=8GB
%nprocshared=4
# opt freq B3LYP/6-31G(d) empiricaldispersion=gd3bj scf=xqc

CID_64176472_JID_10347_neutraal

0 1
C          0.98143        0.06343        0.07505
C          0.25731       -0.98925        0.89987
C          1.20659       -2.11005        1.32518
N          0.59956       -2.99884        2.32149
C         -0.11471       -4.12750        1.91831
O         -0.55077       -4.96509        2.69588
O         -0.28181       -4.18536        0.57151
C         -1.00268       -5.28353       -0.04560
C         -0.29029       -6.62031        0.18895
C         -2.46481       -5.32356        0.41402
C         -0.97334       -4.97062       -1.54958
C          0.74339       -2.72548        3.80534
C         -0.66066       -2.60055        4.45618
C         -0.66939       -1.98449        5.85547
C          0.19309       -0.74161        5.92236
O          1.51712       -1.05803        5.50858
C          1.56911       -1.44834        4.13297
C          1.60151       -3.89184        4.34534
O          2.63056       -4.31479        3.83119
O          1.16151       -4.45262        5.48742
H          1.78096        0.53415        0.65605
H          0.28325        0.84616       -0.23755
H          1.42256       -0.37810       -0.82423
H         -0.19372       -0.50859        1.77476
H         -0.57144       -1.40628        0.31558
H          1.48763       -2.69310        0.43969
H          2.15082       -1.71824        1.71282
H         -0.33841       -6.93248        1.23647
H         -0.73730       -7.42052       -0.41088
H          0.77238       -6.54454       -0.06738
H         -2.92769       -4.33439        0.32466
H         -3.04891       -6.03662       -0.17793
H         -2.55785       -5.61988        1.46307
H         -1.44344       -4.00175       -1.75498
H          0.05851       -4.89663       -1.91227
H         -1.49163       -5.73747       -2.13500
H         -1.28684       -1.96928        3.81061
H         -1.16870       -3.56864        4.51823
H         -1.69737       -1.74692        6.15076
H         -0.29373       -2.71882        6.57637
H         -0.21082        0.06513        5.29944
H          0.24089       -0.37306        6.95182
H          2.62906       -1.59114        3.89250
H          1.22766       -0.58987        3.54488
H          1.79440       -5.18355        5.64490

--Link1--
%chk=JID_10347.chk
%mem=8GB
%nprocshared=4
# B3LYP/6-311++G(d,p) empiricaldispersion=gd3bj scf=xqc pop=npa geom=check

CID_64176472_JID_10347_Energie_neutraal

0 1

--Link1--
%chk=JID_10347.chk
%mem=8GB
%nprocshared=4
# B3LYP/6-311++G(d,p) empiricaldispersion=gd3bj scf=xqc pop=npa geom=check

CID_64176472_JID_10347_Energie_kation

1 2

--Link1--
%chk=JID_10347.chk
%mem=8GB
%nprocshared=4
# B3LYP/6-311++G(d,p) empiricaldispersion=gd3bj scf=xqc pop=npa geom=check

CID_64176472_JID_10347_Energie_anion

-1 2
