%chk=JID_8652.chk
%mem=8GB
%nprocshared=4
# opt freq B3LYP/6-31G(d) empiricaldispersion=gd3bj scf=xqc

CID_103768356_JID_8652_neutraal

0 1
C          1.02504        0.07949       -0.05526
C          1.07881       -1.14113       -0.97047
C          1.95186       -2.34006       -0.50281
C          1.76348       -2.61004        1.00362
C          1.48205       -3.63326       -1.25198
C          1.54841       -3.57772       -2.77946
O          2.89713       -3.46033       -3.21144
N          3.41376       -2.18035       -0.75494
C          4.07188       -0.94176       -0.90171
C          4.74102       -0.31044        0.09346
N          5.34624        0.91932       -0.12630
C          5.32794        1.55786       -1.35619
O          5.85407        2.64477       -1.58942
N          4.68255        0.90503       -2.36323
C          4.11124       -0.32239       -2.26933
O          3.63131       -0.89406       -3.24891
C          6.09098        1.54844        0.95797
N          4.82471       -0.92834        1.33919
H          0.54548       -0.15855        0.89903
H          0.42578        0.86533       -0.52791
H          2.01078        0.49899        0.14832
H          0.04100       -1.48616       -1.07638
H          1.38015       -0.81056       -1.96944
H          0.70984       -2.79260        1.24335
H          2.33594       -3.48946        1.32195
H          2.10395       -1.77143        1.61865
H          2.10007       -4.47730       -0.91542
H          0.44753       -3.86220       -0.96486
H          1.15385       -4.51153       -3.19290
H          0.95401       -2.75883       -3.19573
H          3.01866       -2.54883       -3.56389
H          3.62259       -2.70973       -1.61863
H          4.71326        1.33909       -3.27169
H          6.88318        0.87225        1.29591
H          6.55746        2.48717        0.64644
H          5.40770        1.76770        1.78490
H          4.31640       -1.81561        1.29305
H          4.42760       -0.33706        2.06207

--Link1--
%chk=JID_8652.chk
%mem=8GB
%nprocshared=4
# B3LYP/6-311++G(d,p) empiricaldispersion=gd3bj scf=xqc pop=npa geom=check

CID_103768356_JID_8652_Energie_neutraal

0 1

--Link1--
%chk=JID_8652.chk
%mem=8GB
%nprocshared=4
# B3LYP/6-311++G(d,p) empiricaldispersion=gd3bj scf=xqc pop=npa geom=check

CID_103768356_JID_8652_Energie_kation

1 2

--Link1--
%chk=JID_8652.chk
%mem=8GB
%nprocshared=4
# B3LYP/6-311++G(d,p) empiricaldispersion=gd3bj scf=xqc pop=npa geom=check

CID_103768356_JID_8652_Energie_anion

-1 2
