%chk=JID_7748.chk
%mem=8GB
%nprocshared=4
# opt freq B3LYP/6-31G(d) empiricaldispersion=gd3bj scf=xqc

CID_115246637_JID_7748_neutraal

0 1
C          0.98920       -0.06591       -0.07442
N          0.18547       -1.24795        0.26381
C         -0.55014       -0.99555        1.52734
C         -1.90052       -1.73527        1.63014
C         -1.82252       -3.14355        2.15059
C         -1.26609       -3.60137        3.33022
C         -1.39970       -5.01186        3.48374
C         -2.07368       -5.58328        2.42885
S         -2.54457       -4.42430        1.26619
C          1.04021       -2.45475        0.37465
C          1.36114       -3.11706       -0.98425
C          1.59114       -4.66720       -0.82907
C          0.76050       -4.86646       -2.10768
C          0.09802       -3.50708       -1.82521
C          2.55709       -2.40092       -1.72018
O          3.66828       -2.13497       -1.27296
O          2.30003       -2.06180       -3.00843
H          0.35251        0.82307       -0.15402
H          1.46148       -0.17032       -1.05367
H          1.76527        0.13388        0.67301
H          0.08788       -1.17332        2.40255
H         -0.81448        0.07049        1.56492
H         -2.53968       -1.17480        2.32652
H         -2.41323       -1.69444        0.66051
H         -0.77681       -2.95681        4.05036
H         -1.02635       -5.57780        4.32816
H         -2.32147       -6.62608        2.28641
H          1.96296       -2.23834        0.92979
H          0.51695       -3.19828        0.98057
H          2.62856       -5.00899       -0.89437
H          1.13535       -5.12480        0.05708
H          0.09044       -5.72997       -2.10650
H          1.36008       -4.88466       -3.02470
H         -0.82793       -3.59183       -1.24598
H         -0.11413       -2.89990       -2.70929
H          3.13241       -1.64232       -3.30948

--Link1--
%chk=JID_7748.chk
%mem=8GB
%nprocshared=4
# B3LYP/6-311++G(d,p) empiricaldispersion=gd3bj scf=xqc pop=npa geom=check

CID_115246637_JID_7748_Energie_neutraal

0 1

--Link1--
%chk=JID_7748.chk
%mem=8GB
%nprocshared=4
# B3LYP/6-311++G(d,p) empiricaldispersion=gd3bj scf=xqc pop=npa geom=check

CID_115246637_JID_7748_Energie_kation

1 2

--Link1--
%chk=JID_7748.chk
%mem=8GB
%nprocshared=4
# B3LYP/6-311++G(d,p) empiricaldispersion=gd3bj scf=xqc pop=npa geom=check

CID_115246637_JID_7748_Energie_anion

-1 2
