%chk=JID_9469.chk
%mem=8GB
%nprocshared=4
# opt freq B3LYP/6-31G(d) empiricaldispersion=gd3bj scf=xqc

CID_117413454_JID_9469_neutraal

0 1
C          1.09636       -0.00171       -0.02669
C          0.43777       -1.40498        0.03079
C          0.91313       -2.04535        1.35449
C         -1.08704       -1.16297        0.08205
C          0.80083       -2.30811       -1.16904
C          1.61261       -1.83750       -2.21613
C          1.94537       -2.63053       -3.31937
C          1.47885       -3.94200       -3.39474
C          0.67867       -4.48470       -2.37609
C          0.33628       -3.63465       -1.29160
O         -0.51905       -4.11565       -0.33006
C          0.21414       -5.94195       -2.40450
C          0.95962       -6.78822       -1.34889
C          0.74999       -8.24876       -1.75611
C          0.40185       -8.23079       -3.24367
C          0.52242       -6.76886       -3.67293
N         -1.24404       -5.98389       -2.13397
O          2.73377       -2.00343       -4.24711
C          3.13174       -2.75990       -5.38265
H          0.82303        0.60025        0.84866
H          0.77495        0.56082       -0.91112
H          2.19059       -0.06908       -0.03919
H          0.73551       -1.37410        2.20324
H          0.39597       -2.98058        1.58611
H          1.98733       -2.26291        1.32205
H         -1.45021       -0.74229       -0.86313
H         -1.65709       -2.07613        0.27449
H         -1.34751       -0.45870        0.88117
H          2.00921       -0.82604       -2.20891
H          1.74304       -4.54730       -4.25149
H         -1.01108       -4.85957       -0.74595
H          2.03443       -6.56148       -1.36910
H          0.62032       -6.61004       -0.32223
H         -0.06957       -8.69775       -1.18367
H          1.64886       -8.84215       -1.55911
H         -0.61916       -8.59793       -3.39817
H          1.06949       -8.87471       -3.82521
H         -0.13521       -6.53049       -4.51615
H          1.55471       -6.61665       -4.01047
H         -1.72123       -5.53397       -2.91967
H         -1.57261       -6.94992       -2.14033
H          3.73258       -3.62701       -5.08907
H          2.26456       -3.06190       -5.97908
H          3.75862       -2.11797       -6.00905

--Link1--
%chk=JID_9469.chk
%mem=8GB
%nprocshared=4
# B3LYP/6-311++G(d,p) empiricaldispersion=gd3bj scf=xqc pop=npa geom=check

CID_117413454_JID_9469_Energie_neutraal

0 1

--Link1--
%chk=JID_9469.chk
%mem=8GB
%nprocshared=4
# B3LYP/6-311++G(d,p) empiricaldispersion=gd3bj scf=xqc pop=npa geom=check

CID_117413454_JID_9469_Energie_kation

1 2

--Link1--
%chk=JID_9469.chk
%mem=8GB
%nprocshared=4
# B3LYP/6-311++G(d,p) empiricaldispersion=gd3bj scf=xqc pop=npa geom=check

CID_117413454_JID_9469_Energie_anion

-1 2
