%chk=JID_5163.chk
%mem=8GB
%nprocshared=4
# opt freq B3LYP/6-31G(d) empiricaldispersion=gd3bj scf=xqc

CID_64832731_JID_5163_neutraal

0 1
C          1.03739       -0.00119        0.09274
C          0.66720        1.34872        0.69162
C          1.06278        2.52866       -0.20619
C         -0.09235        3.12152       -1.05159
C         -0.76208        2.07345       -1.98864
N         -1.87666        2.61176       -2.78112
C         -1.46388        3.81674       -3.50324
C         -0.81091        4.87561       -2.59083
N          0.27797        4.38907       -1.72932
C          1.61490        4.50722       -2.32036
C          1.99239        3.60884       -3.50780
O          3.36617        3.84173       -3.83248
C          3.86758        3.17818       -4.99652
C          3.71070        1.66197       -4.93404
C          3.28004        3.76301       -6.27704
H          0.54193       -0.17564       -0.86527
H          0.74551       -0.80669        0.77419
H          2.11841       -0.07285       -0.06618
H         -0.40077        1.37677        0.93397
H          1.20429        1.44276        1.64376
H          1.43300        3.32592        0.45295
H          1.90416        2.23363       -0.84326
H         -0.86794        3.40939       -0.32577
H         -1.17653        1.25942       -1.38567
H         -0.02239        1.62620       -2.66038
H         -2.20281        1.90729       -3.43987
H         -0.78564        3.53773       -4.31533
H         -2.34895        4.25773       -3.97546
H         -1.59102        5.27803       -1.93049
H         -0.48023        5.72795       -3.19706
H          1.76468        5.55092       -2.63133
H          2.37202        4.38669       -1.53506
H          1.86981        2.55841       -3.23939
H          1.36649        3.84803       -4.36900
H          4.94230        3.39538       -5.00415
H          2.66175        1.36068       -5.02457
H          4.07837        1.27551       -3.97778
H          4.26666        1.17948       -5.74428
H          3.81084        3.38533       -7.15678
H          2.22153        3.50895       -6.39128
H          3.35040        4.85575       -6.26738

--Link1--
%chk=JID_5163.chk
%mem=8GB
%nprocshared=4
# B3LYP/6-311++G(d,p) empiricaldispersion=gd3bj scf=xqc pop=npa geom=check

CID_64832731_JID_5163_Energie_neutraal

0 1

--Link1--
%chk=JID_5163.chk
%mem=8GB
%nprocshared=4
# B3LYP/6-311++G(d,p) empiricaldispersion=gd3bj scf=xqc pop=npa geom=check

CID_64832731_JID_5163_Energie_kation

1 2

--Link1--
%chk=JID_5163.chk
%mem=8GB
%nprocshared=4
# B3LYP/6-311++G(d,p) empiricaldispersion=gd3bj scf=xqc pop=npa geom=check

CID_64832731_JID_5163_Energie_anion

-1 2
