%chk=JID_6295.chk
%mem=8GB
%nprocshared=4
# opt freq B3LYP/6-31G(d) empiricaldispersion=gd3bj scf=xqc

CID_105481757_JID_6295_neutraal

0 1
C          0.91212        0.04633        0.01143
C          0.08865       -0.25641       -1.25481
C         -0.01168       -1.79699       -1.52943
C          0.14207       -2.78264       -0.38942
C          1.29608       -3.58551       -0.33429
C          1.46207       -4.54148        0.66969
C          0.48031       -4.70483        1.64197
C         -0.66968       -3.91771        1.60566
C         -0.83605       -2.97292        0.59002
O         -1.98112       -2.23337        0.53793
C         -1.31240        0.37796       -1.14024
C         -1.30012        1.87830       -1.05181
O         -1.40960        2.66168       -1.98276
O         -1.19908        2.33577        0.21067
O          0.85882        0.35524       -2.32315
C          0.32298        0.28454       -3.63892
H          0.39139       -0.25012        0.92695
H          1.15289        1.11303        0.08370
H          1.88020       -0.46719       -0.02405
H         -0.95504       -2.02344       -2.04538
H          0.75683       -2.05885       -2.27045
H          2.07521       -3.47896       -1.08711
H          2.35555       -5.16057        0.68672
H          0.60795       -5.44995        2.42279
H         -1.42877       -4.06348        2.36797
H         -2.52281       -2.44733        1.31571
H         -1.93321        0.12188       -2.00766
H         -1.85771        0.00527       -0.26926
H         -1.19625        3.31000        0.10376
H          0.15641       -0.74759       -3.95612
H         -0.60349        0.85490       -3.72650
H          1.05424        0.72995       -4.31974

--Link1--
%chk=JID_6295.chk
%mem=8GB
%nprocshared=4
# B3LYP/6-311++G(d,p) empiricaldispersion=gd3bj scf=xqc pop=npa geom=check

CID_105481757_JID_6295_Energie_neutraal

0 1

--Link1--
%chk=JID_6295.chk
%mem=8GB
%nprocshared=4
# B3LYP/6-311++G(d,p) empiricaldispersion=gd3bj scf=xqc pop=npa geom=check

CID_105481757_JID_6295_Energie_kation

1 2

--Link1--
%chk=JID_6295.chk
%mem=8GB
%nprocshared=4
# B3LYP/6-311++G(d,p) empiricaldispersion=gd3bj scf=xqc pop=npa geom=check

CID_105481757_JID_6295_Energie_anion

-1 2
