%chk=JID_2059.chk
%mem=8GB
%nprocshared=4
# opt freq B3LYP/6-31G(d) empiricaldispersion=gd3bj scf=xqc

CID_135173563_JID_2059_neutraal

0 1
C          0.94388        0.01334        0.08169
N          0.20034       -0.90808        0.94971
C         -0.87130       -1.53449        0.16945
S          1.08420       -1.85805        1.99620
N          0.23397       -1.87237        3.42488
C         -0.18987       -0.60294        4.03405
C         -0.45664       -0.74209        5.53447
C         -1.47599       -1.84891        5.82835
C         -1.03176       -3.14328        5.14347
C         -0.76264       -2.92715        3.65450
C         -1.66344       -2.07438        7.33065
O         -2.21768       -0.92096        7.94912
H          0.27029        0.73075       -0.40094
H          1.49814       -0.52342       -0.69703
H          1.65890        0.60685        0.66382
H         -0.47188       -2.20793       -0.59754
H         -1.54480       -2.11197        0.81173
H         -1.49413       -0.77796       -0.32183
H         -1.08889       -0.22219        3.53159
H          0.59053        0.15895        3.90905
H         -0.81779        0.21882        5.91897
H          0.48745       -0.95742        6.05191
H         -2.43982       -1.53413        5.40521
H         -0.12302       -3.52919        5.62435
H         -1.80385       -3.91297        5.26247
H         -0.40969       -3.88141        3.24230
H         -1.70050       -2.68613        3.13833
H         -2.35819       -2.90248        7.50573
H         -0.71879       -2.32069        7.82785
H         -1.51358       -0.25361        8.01252

--Link1--
%chk=JID_2059.chk
%mem=8GB
%nprocshared=4
# B3LYP/6-311++G(d,p) empiricaldispersion=gd3bj scf=xqc pop=npa geom=check

CID_135173563_JID_2059_Energie_neutraal

0 1

--Link1--
%chk=JID_2059.chk
%mem=8GB
%nprocshared=4
# B3LYP/6-311++G(d,p) empiricaldispersion=gd3bj scf=xqc pop=npa geom=check

CID_135173563_JID_2059_Energie_kation

1 2

--Link1--
%chk=JID_2059.chk
%mem=8GB
%nprocshared=4
# B3LYP/6-311++G(d,p) empiricaldispersion=gd3bj scf=xqc pop=npa geom=check

CID_135173563_JID_2059_Energie_anion

-1 2
