%chk=JID_7894.chk
%mem=8GB
%nprocshared=4
# opt freq B3LYP/6-31G(d) empiricaldispersion=gd3bj scf=xqc

CID_64914349_JID_7894_neutraal

0 1
C          1.03627       -0.01495       -0.09198
C          1.04136       -0.18743        1.42462
C          2.03063        0.71135        2.17543
S          1.64859        2.50963        2.28329
C          1.99583        3.13743        0.64211
C          3.17615        2.72635       -0.00361
C          3.48618        3.14692       -1.30032
C          2.63151        4.00810       -1.97485
C          1.48127        4.47013       -1.34113
C          1.16682        4.05261       -0.03410
S         -0.25771        4.81048        0.71707
O          0.17345        5.51063        1.90445
O         -1.01269        5.47889       -0.32022
N         -1.21795        3.52937        1.23360
C         -0.33583       -0.10269        2.03743
O         -0.67940       -0.63215        3.08137
O         -1.19921        0.67399        1.35577
H          0.63322        0.95099       -0.40649
H          0.40809       -0.78318       -0.55763
H          2.04635       -0.12112       -0.50027
H          1.36206       -1.22559        1.59410
H          2.06355        0.37717        3.21995
H          3.04409        0.56351        1.79159
H          3.89319        2.08021        0.49662
H          4.40344        2.80814       -1.77692
H          2.87191        4.34334       -2.98120
H          0.84318        5.17856       -1.86846
H         -0.90742        2.61586        0.89084
H         -1.21570        3.54229        2.25604
H         -2.03879        0.59639        1.86311

--Link1--
%chk=JID_7894.chk
%mem=8GB
%nprocshared=4
# B3LYP/6-311++G(d,p) empiricaldispersion=gd3bj scf=xqc pop=npa geom=check

CID_64914349_JID_7894_Energie_neutraal

0 1

--Link1--
%chk=JID_7894.chk
%mem=8GB
%nprocshared=4
# B3LYP/6-311++G(d,p) empiricaldispersion=gd3bj scf=xqc pop=npa geom=check

CID_64914349_JID_7894_Energie_kation

1 2

--Link1--
%chk=JID_7894.chk
%mem=8GB
%nprocshared=4
# B3LYP/6-311++G(d,p) empiricaldispersion=gd3bj scf=xqc pop=npa geom=check

CID_64914349_JID_7894_Energie_anion

-1 2
