%chk=JID_7660.chk
%mem=8GB
%nprocshared=4
# opt freq B3LYP/6-31G(d) empiricaldispersion=gd3bj scf=xqc

CID_117039388_JID_7660_neutraal

0 1
C          0.95942        0.06669       -0.06249
N          0.08149        0.92195        0.71791
C         -1.33798        0.84394        0.39578
C         -2.08714       -0.39137        0.82466
C         -1.77863       -1.72891        0.64870
C         -2.77908       -2.60291        1.16586
C         -3.84574       -1.91136        1.68937
S         -3.64761       -0.22323        1.53897
C          0.58661        1.29328        2.04552
C          0.76198        0.14734        3.05945
C         -0.44248       -0.14231        3.94652
C         -1.11890        1.09020        4.56759
C         -1.30789        2.22197        3.54508
C         -0.08429        2.52175        2.68828
C         -0.42048        1.58006        5.87052
N          0.97618        2.00045        5.77007
O         -2.43679        0.67546        4.99009
H          0.62826       -0.00352       -1.10474
H          1.03117       -0.94667        0.33986
H          1.97325        0.48163       -0.09701
H         -1.84304        1.74829        0.75033
H         -1.44668        0.91292       -0.69638
H         -0.87384       -2.07943        0.17141
H         -2.72228       -3.68427        1.14286
H         -4.74259       -2.31767        2.13688
H          1.60983        1.64339        1.84007
H          1.61760        0.39492        3.69836
H          1.06297       -0.78028        2.55986
H         -0.14372       -0.83682        4.74309
H         -1.17535       -0.71010        3.36883
H         -2.15769        1.99215        2.89764
H         -1.61659        3.13973        4.06315
H          0.66089        3.03069        3.31242
H         -0.34751        3.25760        1.91760
H         -1.00009        2.41862        6.27828
H         -0.49178        0.79416        6.63393
H          1.24187        2.45091        6.64632
H          1.56697        1.17217        5.70809
H         -2.91091        0.35738        4.20011

--Link1--
%chk=JID_7660.chk
%mem=8GB
%nprocshared=4
# B3LYP/6-311++G(d,p) empiricaldispersion=gd3bj scf=xqc pop=npa geom=check

CID_117039388_JID_7660_Energie_neutraal

0 1

--Link1--
%chk=JID_7660.chk
%mem=8GB
%nprocshared=4
# B3LYP/6-311++G(d,p) empiricaldispersion=gd3bj scf=xqc pop=npa geom=check

CID_117039388_JID_7660_Energie_kation

1 2

--Link1--
%chk=JID_7660.chk
%mem=8GB
%nprocshared=4
# B3LYP/6-311++G(d,p) empiricaldispersion=gd3bj scf=xqc pop=npa geom=check

CID_117039388_JID_7660_Energie_anion

-1 2
