%chk=JID_8345.chk
%mem=8GB
%nprocshared=4
# opt freq B3LYP/6-31G(d) empiricaldispersion=gd3bj scf=xqc

CID_55216938_JID_8345_neutraal

0 1
C          1.02847        0.08427       -0.04569
C          0.40074       -1.04463       -0.87574
C          1.45560       -1.70967       -1.80325
N          2.36964       -2.57038       -1.04928
C          1.67296       -3.58433       -0.25759
C          0.65361       -2.92005        0.69267
N         -0.30076       -1.99814        0.02999
C         -1.34148       -2.73950       -0.68308
C          3.66058       -2.12094       -0.81301
O          4.08041       -1.06646       -1.30514
C          4.58610       -2.94263        0.07507
C          4.46555       -2.60759        1.54731
C          4.15739       -3.64360        2.45124
C          4.05236       -3.39706        3.81885
C          4.28346       -2.11767        4.30669
C          4.61439       -1.08851        3.42458
C          4.66948       -1.30350        2.03982
N          5.16346       -0.27086        1.22811
H          0.26756        0.58679        0.56198
H          1.47464        0.83864       -0.70299
H          1.81267       -0.27332        0.62814
H         -0.34466       -0.55634       -1.51805
H          0.95337       -2.34850       -2.53981
H          2.00064       -0.94681       -2.36919
H          2.36246       -4.20225        0.31544
H          1.16193       -4.25256       -0.96033
H          1.20041       -2.35114        1.45449
H          0.10789       -3.69446        1.24569
H         -0.95031       -3.35132       -1.50199
H         -1.88298       -3.39703        0.00626
H         -2.08518       -2.04980       -1.09763
H          4.42955       -4.00920       -0.11942
H          5.61935       -2.75107       -0.24336
H          4.01042       -4.66050        2.09417
H          3.81480       -4.20660        4.50372
H          4.23282       -1.92148        5.37411
H          4.83928       -0.10493        3.82977
H          4.90510       -0.33379        0.23990
H          4.97302        0.65894        1.58629

--Link1--
%chk=JID_8345.chk
%mem=8GB
%nprocshared=4
# B3LYP/6-311++G(d,p) empiricaldispersion=gd3bj scf=xqc pop=npa geom=check

CID_55216938_JID_8345_Energie_neutraal

0 1

--Link1--
%chk=JID_8345.chk
%mem=8GB
%nprocshared=4
# B3LYP/6-311++G(d,p) empiricaldispersion=gd3bj scf=xqc pop=npa geom=check

CID_55216938_JID_8345_Energie_kation

1 2

--Link1--
%chk=JID_8345.chk
%mem=8GB
%nprocshared=4
# B3LYP/6-311++G(d,p) empiricaldispersion=gd3bj scf=xqc pop=npa geom=check

CID_55216938_JID_8345_Energie_anion

-1 2
