%chk=JID_996.chk
%mem=8GB
%nprocshared=4
# opt freq B3LYP/6-31G(d) empiricaldispersion=gd3bj scf=xqc

CID_88038230_JID_996_neutraal

0 1
C          1.03846       -0.04359       -0.08137
C          0.47598        1.37717       -0.13560
C          0.87009        2.03370       -1.46307
C         -1.05478        1.41074        0.02366
C         -1.63652        0.77172        1.29673
C         -1.23754        1.39910        2.65256
C         -1.48652        2.90786        2.69275
C         -2.00745        0.70869        3.80247
O         -1.67441       -0.67818        3.86588
O          0.15609        1.14670        2.88769
H          0.57385       -0.68234       -0.84028
H          0.87742       -0.50689        0.89592
H          2.11899       -0.03924       -0.26177
H          0.93763        1.96727        0.66347
H          0.45397        1.48756       -2.31669
H          0.50676        3.06570       -1.51032
H          1.95921        2.05870       -1.57649
H         -1.40225        2.44877       -0.04757
H         -1.50515        0.89325       -0.83467
H         -2.73025        0.81624        1.20472
H         -1.37596       -0.29344        1.29159
H         -2.52799        3.14903        2.45725
H         -1.25683        3.31399        3.68477
H         -0.83239        3.43987        1.99419
H         -1.72831        1.14219        4.76884
H         -3.09099        0.80136        3.67964
H         -0.73103       -0.73466        3.61360
H          0.43223        1.66901        3.66134

--Link1--
%chk=JID_996.chk
%mem=8GB
%nprocshared=4
# B3LYP/6-311++G(d,p) empiricaldispersion=gd3bj scf=xqc pop=npa geom=check

CID_88038230_JID_996_Energie_neutraal

0 1

--Link1--
%chk=JID_996.chk
%mem=8GB
%nprocshared=4
# B3LYP/6-311++G(d,p) empiricaldispersion=gd3bj scf=xqc pop=npa geom=check

CID_88038230_JID_996_Energie_kation

1 2

--Link1--
%chk=JID_996.chk
%mem=8GB
%nprocshared=4
# B3LYP/6-311++G(d,p) empiricaldispersion=gd3bj scf=xqc pop=npa geom=check

CID_88038230_JID_996_Energie_anion

-1 2
