%chk=JID_1481.chk
%mem=8GB
%nprocshared=4
# opt freq B3LYP/6-31G(d) empiricaldispersion=gd3bj scf=xqc

CID_118013512_JID_1481_neutraal

0 1
C          0.98868       -0.08836       -0.04543
C          0.33486        0.71512       -1.13539
C         -0.48047        0.20041       -2.08470
C         -1.02500       -1.19984       -2.36473
C         -2.55778       -1.07895       -2.50368
C         -0.44291       -1.66964       -3.71159
C         -0.74356       -2.28517       -1.31453
C          0.66106        2.20634       -1.17235
C         -0.07562        3.03599       -0.10249
O          0.46364        2.79533        1.19986
O          2.07168        2.38637       -1.04656
H          1.56262       -0.91988       -0.46269
H          0.24377       -0.46015        0.66360
H          1.70385        0.50109        0.53586
H         -0.83972        0.91464       -2.83236
H         -2.83944       -0.36650       -3.28834
H         -3.01079       -2.04293       -2.76333
H         -3.01404       -0.73853       -1.56645
H          0.64822       -1.76416       -3.65941
H         -0.84784       -2.64673       -3.99975
H         -0.67672       -0.96714       -4.52053
H          0.32307       -2.51561       -1.23919
H         -1.11750       -1.99857       -0.32636
H         -1.24288       -3.22484       -1.58195
H          0.38879        2.61668       -2.15211
H          0.07870        4.10121       -0.30359
H         -1.15280        2.83990       -0.09368
H          0.07862        1.95667        1.51070
H          2.22206        2.64363       -0.11605

--Link1--
%chk=JID_1481.chk
%mem=8GB
%nprocshared=4
# B3LYP/6-311++G(d,p) empiricaldispersion=gd3bj scf=xqc pop=npa geom=check

CID_118013512_JID_1481_Energie_neutraal

0 1

--Link1--
%chk=JID_1481.chk
%mem=8GB
%nprocshared=4
# B3LYP/6-311++G(d,p) empiricaldispersion=gd3bj scf=xqc pop=npa geom=check

CID_118013512_JID_1481_Energie_kation

1 2

--Link1--
%chk=JID_1481.chk
%mem=8GB
%nprocshared=4
# B3LYP/6-311++G(d,p) empiricaldispersion=gd3bj scf=xqc pop=npa geom=check

CID_118013512_JID_1481_Energie_anion

-1 2
