%chk=JID_4594.chk
%mem=8GB
%nprocshared=4
# opt freq B3LYP/6-31G(d) empiricaldispersion=gd3bj scf=xqc

CID_105363548_JID_4594_neutraal

0 1
C          0.97047        0.06257       -0.07221
C          0.35044       -0.45374       -1.36183
C          0.91505       -1.79436       -1.75258
C          2.01688       -1.93592       -2.58946
N          2.46646       -3.17472       -2.88091
N          1.84565       -4.25908       -2.34602
C          0.77711       -4.07788       -1.54307
N          0.29189       -2.86706       -1.20593
C          0.14105       -5.28772       -0.94021
C         -0.40316       -6.22388       -1.97244
O         -0.29415       -7.44143       -1.95100
O         -1.15658       -5.63836       -2.92300
C          2.71743       -0.76223       -3.22121
C          4.01307       -1.10652       -3.94695
H          0.79534       -0.63168        0.75683
H          0.53262        1.02886        0.19739
H          2.05243        0.19654       -0.17233
H         -0.73304       -0.55509       -1.22133
H          0.47976        0.27786       -2.16624
H          0.89714       -5.81993       -0.35226
H         -0.67458       -5.00977       -0.26427
H         -1.44774       -6.38006       -3.49432
H          2.03248       -0.29007       -3.93516
H          2.95425       -0.02531       -2.44570
H          3.83394       -1.79865       -4.77663
H          4.46621       -0.19904       -4.35892
H          4.73748       -1.56798       -3.26731

--Link1--
%chk=JID_4594.chk
%mem=8GB
%nprocshared=4
# B3LYP/6-311++G(d,p) empiricaldispersion=gd3bj scf=xqc pop=npa geom=check

CID_105363548_JID_4594_Energie_neutraal

0 1

--Link1--
%chk=JID_4594.chk
%mem=8GB
%nprocshared=4
# B3LYP/6-311++G(d,p) empiricaldispersion=gd3bj scf=xqc pop=npa geom=check

CID_105363548_JID_4594_Energie_kation

1 2

--Link1--
%chk=JID_4594.chk
%mem=8GB
%nprocshared=4
# B3LYP/6-311++G(d,p) empiricaldispersion=gd3bj scf=xqc pop=npa geom=check

CID_105363548_JID_4594_Energie_anion

-1 2
