%chk=JID_7456.chk
%mem=8GB
%nprocshared=4
# opt freq B3LYP/6-31G(d) empiricaldispersion=gd3bj scf=xqc

CID_60820325_JID_7456_neutraal

0 1
C          1.07168       -0.06788        0.01597
C          1.06624        1.43486       -0.22048
C          1.40925        1.82952       -1.65932
C          0.49246        1.24711       -2.73951
C         -0.99516        1.57471       -2.58292
C         -1.34614        3.06547       -2.63026
C         -0.96817        3.79548       -3.92679
C         -1.51635        3.16251       -5.21602
N         -2.96505        2.91148       -5.17824
C         -3.74448        4.15271       -5.28887
C         -5.24225        3.87247       -5.15624
C         -5.71455        2.84895       -6.19709
C         -4.83503        1.59684       -6.11670
C         -3.35350        1.95944       -6.22660
N         -7.14154        2.58286       -5.96591
C         -7.77427        1.74050       -6.97784
C         -8.04522        0.33267       -6.46360
H          0.26863       -0.56532       -0.53551
H          0.92275       -0.28058        1.07952
H          2.02628       -0.50951       -0.28692
H          0.09231        1.84636        0.06615
H          1.80371        1.89588        0.44779
H          1.41194        2.92346       -1.73202
H          2.43707        1.51128       -1.87543
H          0.84476        1.59389       -3.71795
H          0.60626        0.15653       -2.75859
H         -1.55047        1.04324       -3.36458
H         -1.36367        1.16174       -1.63664
H         -2.42604        3.16776       -2.46521
H         -0.87072        3.58209       -1.78816
H         -1.30900        4.83498       -3.85037
H          0.12438        3.85056       -4.00601
H         -1.25252        3.79415       -6.07430
H         -0.98263        2.21550       -5.36542
H         -3.54423        4.65577       -6.24394
H         -3.47003        4.85134       -4.49111
H         -5.79559        4.81269       -5.27427
H         -5.44984        3.50748       -4.14083
H         -5.59905        3.30489       -7.18955
H         -5.01118        1.06920       -5.16973
H         -5.08240        0.89831       -6.92406
H         -2.77607        1.03264       -6.12122
H         -3.13896        2.36493       -7.22404
H         -7.27710        2.19183       -5.03428
H         -8.73655        2.19750       -7.23501
H         -7.19543        1.70054       -7.90762
H         -8.69415        0.35318       -5.58138
H         -8.55007       -0.25772       -7.23507
H         -7.12114       -0.18714       -6.19437

--Link1--
%chk=JID_7456.chk
%mem=8GB
%nprocshared=4
# B3LYP/6-311++G(d,p) empiricaldispersion=gd3bj scf=xqc pop=npa geom=check

CID_60820325_JID_7456_Energie_neutraal

0 1

--Link1--
%chk=JID_7456.chk
%mem=8GB
%nprocshared=4
# B3LYP/6-311++G(d,p) empiricaldispersion=gd3bj scf=xqc pop=npa geom=check

CID_60820325_JID_7456_Energie_kation

1 2

--Link1--
%chk=JID_7456.chk
%mem=8GB
%nprocshared=4
# B3LYP/6-311++G(d,p) empiricaldispersion=gd3bj scf=xqc pop=npa geom=check

CID_60820325_JID_7456_Energie_anion

-1 2
