%chk=JID_9441.chk
%mem=8GB
%nprocshared=4
# opt freq B3LYP/6-31G(d) empiricaldispersion=gd3bj scf=xqc

CID_105902821_JID_9441_neutraal

0 1
C          0.98670       -0.06744       -0.07263
C          0.01180       -1.22711        0.11177
C          0.36573       -2.07715        1.33306
O         -1.36486       -0.81697        0.02265
C         -1.86664       -0.22747        1.14371
C         -2.67333       -0.92670        2.03289
S         -3.12241        0.18989        3.26498
N         -2.41738        1.52454        2.59442
C         -1.82726        1.17326        1.46010
N         -1.26010        2.08699        0.64340
N         -3.03032       -2.24153        1.93793
C         -3.98911       -2.90525        2.79646
C         -5.33568       -3.27306        2.10395
C         -5.96365       -2.09878        1.31441
C         -5.43742       -1.95218       -0.11039
O         -5.52623       -3.18911       -0.81382
C         -4.71247       -4.19426       -0.22109
C         -5.19693       -4.51324        1.18591
C         -6.30789       -3.64915        3.25247
H          1.01364        0.57906        0.80961
H          0.70142        0.54796       -0.93163
H          2.00355       -0.43904       -0.23737
H          0.14710       -1.87854       -0.76114
H          0.29242       -1.50417        2.26313
H         -0.30778       -2.93520        1.41814
H          1.38998       -2.45700        1.25621
H         -1.50691        3.05418        0.82391
H         -1.19105        1.86718       -0.34411
H         -2.65719       -2.77944        1.16184
H         -3.51736       -3.82190        3.17355
H         -4.19234       -2.30864        3.69294
H         -7.04418       -2.28028        1.23060
H         -5.85330       -1.15411        1.85850
H         -4.41051       -1.58317       -0.15480
H         -6.05324       -1.22468       -0.64987
H         -3.66295       -3.88910       -0.24664
H         -4.79355       -5.09167       -0.84382
H         -4.54996       -5.27135        1.64252
H         -6.18785       -4.97653        1.08009
H         -5.91190       -4.47845        3.84958
H         -6.47478       -2.79872        3.92372
H         -7.28647       -3.95691        2.86634

--Link1--
%chk=JID_9441.chk
%mem=8GB
%nprocshared=4
# B3LYP/6-311++G(d,p) empiricaldispersion=gd3bj scf=xqc pop=npa geom=check

CID_105902821_JID_9441_Energie_neutraal

0 1

--Link1--
%chk=JID_9441.chk
%mem=8GB
%nprocshared=4
# B3LYP/6-311++G(d,p) empiricaldispersion=gd3bj scf=xqc pop=npa geom=check

CID_105902821_JID_9441_Energie_kation

1 2

--Link1--
%chk=JID_9441.chk
%mem=8GB
%nprocshared=4
# B3LYP/6-311++G(d,p) empiricaldispersion=gd3bj scf=xqc pop=npa geom=check

CID_105902821_JID_9441_Energie_anion

-1 2
