%chk=JID_6364.chk
%mem=8GB
%nprocshared=4
# opt freq B3LYP/6-31G(d) empiricaldispersion=gd3bj scf=xqc

CID_63773701_JID_6364_neutraal

0 1
C          1.06119       -0.06201       -0.04910
C          0.64058       -1.52044       -0.15708
N          1.05464       -2.23809        1.04324
C          0.59901       -3.63276        1.09324
C          1.17775       -4.54517       -0.01733
C          2.69680       -4.55715       -0.23127
C          3.48607       -5.29856        0.80728
C          4.41241       -4.78824        1.69663
C          4.98233       -5.79592        2.52686
C          4.48879       -7.04611        2.23120
S          3.35314       -7.00221        0.95523
C          0.85189       -4.19819        2.50717
C          0.09214       -3.49266        3.64433
C         -1.44467       -3.50075        3.53992
C         -2.01728       -4.91574        3.45226
C         -2.04695       -2.77319        4.74557
H          0.60472        0.41838        0.82304
H          0.74480        0.48841       -0.94099
H          2.14909        0.03218        0.03669
H         -0.44807       -1.56614       -0.27258
H          1.09847       -1.95086       -1.05351
H          2.06355       -2.18351        1.16914
H         -0.48730       -3.63794        0.94039
H          0.81160       -5.56752        0.14200
H          0.72671       -4.23126       -0.96870
H          2.89906       -5.02730       -1.20366
H          3.07683       -3.53319       -0.32318
H          4.66449       -3.73635        1.75765
H          5.71938       -5.61339        3.29906
H          4.74544       -7.98716        2.69776
H          0.60974       -5.26734        2.52500
H          1.91651       -4.12503        2.75101
H          0.38707       -3.97211        4.58747
H          0.43982       -2.45427        3.71630
H         -1.74932       -2.94865        2.64337
H         -1.69260       -5.52852        4.29999
H         -3.11243       -4.89238        3.45261
H         -1.70522       -5.41529        2.53009
H         -1.67656       -1.74421        4.80382
H         -3.13861       -2.73003        4.66847
H         -1.79361       -3.27922        5.68347

--Link1--
%chk=JID_6364.chk
%mem=8GB
%nprocshared=4
# B3LYP/6-311++G(d,p) empiricaldispersion=gd3bj scf=xqc pop=npa geom=check

CID_63773701_JID_6364_Energie_neutraal

0 1

--Link1--
%chk=JID_6364.chk
%mem=8GB
%nprocshared=4
# B3LYP/6-311++G(d,p) empiricaldispersion=gd3bj scf=xqc pop=npa geom=check

CID_63773701_JID_6364_Energie_kation

1 2

--Link1--
%chk=JID_6364.chk
%mem=8GB
%nprocshared=4
# B3LYP/6-311++G(d,p) empiricaldispersion=gd3bj scf=xqc pop=npa geom=check

CID_63773701_JID_6364_Energie_anion

-1 2
