%chk=JID_9968.chk
%mem=8GB
%nprocshared=4
# opt freq B3LYP/6-31G(d) empiricaldispersion=gd3bj scf=xqc

CID_107149623_JID_9968_neutraal

0 1
C          1.05583       -0.08280       -0.00519
C          0.78933        1.13446       -0.87726
N          1.14045        0.89452       -2.27642
C          0.11744        0.28437       -3.12598
C         -0.77167        1.33421       -3.77498
C          2.43676        1.19076       -2.69058
O          3.29624        1.60367       -1.90532
C          2.80729        0.97550       -4.16778
N          3.41949       -0.34458       -4.31289
C          3.55283       -0.84523       -5.68885
C          3.51470       -2.39444       -5.56822
O          3.99349       -3.04057       -6.74739
C          5.39393       -2.80041       -6.89685
C          5.68418       -1.32478       -6.99287
C          6.84532       -0.89915       -7.65968
C          7.11400        0.45755       -7.81711
C          6.21944        1.39780       -7.32112
C          5.07306        0.98273       -6.63959
C          4.80784       -0.37876       -6.42013
H          0.46590       -0.94367       -0.33536
H          0.79392        0.13104        1.03556
H          2.11189       -0.36960       -0.04083
H         -0.26692        1.41961       -0.82176
H          1.36903        1.98252       -0.49555
H          0.58643       -0.33287       -3.89696
H         -0.48969       -0.39209       -2.51424
H         -0.18850        2.02954       -4.38679
H         -1.51827        0.85632       -4.41640
H         -1.29982        1.92441       -3.01906
H          1.93682        1.10486       -4.81398
H          3.51115        1.77420       -4.41678
H          4.32775       -0.34873       -3.84478
H          2.69057       -0.55372       -6.30346
H          2.48274       -2.72437       -5.39920
H          4.10264       -2.75358       -4.71168
H          5.94322       -3.24543       -6.05868
H          5.70500       -3.30680       -7.81672
H          7.53621       -1.62763       -8.07877
H          8.00701        0.78017       -8.34548
H          6.40670        2.45820       -7.47028
H          4.38058        1.74757       -6.30668

--Link1--
%chk=JID_9968.chk
%mem=8GB
%nprocshared=4
# B3LYP/6-311++G(d,p) empiricaldispersion=gd3bj scf=xqc pop=npa geom=check

CID_107149623_JID_9968_Energie_neutraal

0 1

--Link1--
%chk=JID_9968.chk
%mem=8GB
%nprocshared=4
# B3LYP/6-311++G(d,p) empiricaldispersion=gd3bj scf=xqc pop=npa geom=check

CID_107149623_JID_9968_Energie_kation

1 2

--Link1--
%chk=JID_9968.chk
%mem=8GB
%nprocshared=4
# B3LYP/6-311++G(d,p) empiricaldispersion=gd3bj scf=xqc pop=npa geom=check

CID_107149623_JID_9968_Energie_anion

-1 2
