%chk=JID_9778.chk
%mem=8GB
%nprocshared=4
# opt freq B3LYP/6-31G(d) empiricaldispersion=gd3bj scf=xqc

CID_115133957_JID_9778_neutraal

0 1
C          1.02893       -0.09544       -0.00740
C          0.42157        1.31704        0.18415
C          1.14365        2.24344       -0.82058
C         -1.08854        1.24962       -0.19775
C         -1.93046        0.26134        0.61388
O         -1.90662        0.53525        2.00576
N          0.57842        1.79506        1.61597
C          1.69493        1.23822        2.40152
C          0.44020        3.19208        1.82369
C          1.54028        4.06925        1.84378
C          1.37374        5.44748        2.04321
C          0.09226        5.95918        2.24891
C         -1.00882        5.11120        2.26416
C         -0.83118        3.74079        2.04714
N         -0.08050        7.32836        2.46765
C          0.91144        8.26054        2.31757
O          0.70975        9.44632        2.57008
C          2.20404        7.77462        1.70304
C          2.55711        6.36692        2.15405
H          0.80224       -0.48889       -1.00545
H          0.64650       -0.81403        0.72458
H          2.12073       -0.08131        0.08789
H          1.09652        1.83272       -1.83619
H          0.68942        3.23923       -0.86363
H          2.20205        2.36292       -0.56367
H         -1.53730        2.24505       -0.11190
H         -1.18055        0.97263       -1.25657
H         -2.97352        0.31306        0.28512
H         -1.59849       -0.76926        0.45979
H         -1.02233        0.91525        2.20359
H          2.65985        1.38761        1.90512
H          1.73911        1.68089        3.40453
H          1.54733        0.16529        2.56039
H          2.54489        3.68499        1.68967
H         -2.01025        5.49349        2.43853
H         -1.70811        3.09950        2.07788
H         -0.98309        7.68654        2.75210
H          2.08311        7.81151        0.61355
H          3.01065        8.46251        1.97841
H          3.39179        5.99476        1.54887
H          2.88363        6.37941        3.20136

--Link1--
%chk=JID_9778.chk
%mem=8GB
%nprocshared=4
# B3LYP/6-311++G(d,p) empiricaldispersion=gd3bj scf=xqc pop=npa geom=check

CID_115133957_JID_9778_Energie_neutraal

0 1

--Link1--
%chk=JID_9778.chk
%mem=8GB
%nprocshared=4
# B3LYP/6-311++G(d,p) empiricaldispersion=gd3bj scf=xqc pop=npa geom=check

CID_115133957_JID_9778_Energie_kation

1 2

--Link1--
%chk=JID_9778.chk
%mem=8GB
%nprocshared=4
# B3LYP/6-311++G(d,p) empiricaldispersion=gd3bj scf=xqc pop=npa geom=check

CID_115133957_JID_9778_Energie_anion

-1 2
