%chk=JID_10747.chk
%mem=8GB
%nprocshared=4
# opt freq B3LYP/6-31G(d) empiricaldispersion=gd3bj scf=xqc

CID_5353125_JID_10747_neutraal

0 1
C          0.91947       -0.05414        0.02414
C          0.47455       -1.50142        0.16535
C          0.90323       -2.14530        1.48750
C          0.34512       -1.49186        2.75643
C         -1.15405       -1.55774        2.84955
C         -1.80909       -2.29873        3.75879
C         -3.30857       -2.38590        3.87567
C         -3.84887       -3.79911        3.67010
O         -3.77340       -1.79852        5.11158
C         -3.43261       -2.35724        6.29509
O         -2.74094       -3.34632        6.47076
C         -4.00636       -1.56494        7.41727
C         -3.52429       -1.80833        8.71295
C         -4.03136       -1.09654        9.80495
C         -5.03330       -0.13935        9.59890
C         -5.52701        0.10849        8.31052
C         -5.01114       -0.60478        7.22242
N         -5.57242        0.60906       10.74210
O         -5.06944        0.40174       11.85523
O         -6.49837        1.40325       10.52463
H          0.41308        0.59348        0.74573
H          0.67910        0.31622       -0.97768
H          2.00003        0.04141        0.16991
H         -0.61213       -1.56446        0.04160
H          0.91318       -2.08074       -0.65628
H          0.60899       -3.20263        1.46914
H          1.99898       -2.13262        1.54584
H          0.79681       -1.99050        3.62356
H          0.65782       -0.44366        2.81818
H         -1.71469       -0.94956        2.14301
H         -1.23744       -2.90122        4.46298
H         -3.75824       -1.76241        3.09267
H         -3.40446       -4.51893        4.36439
H         -4.93130       -3.82153        3.83590
H         -3.64405       -4.15078        2.65333
H         -2.74665       -2.55419        8.87565
H         -3.63801       -1.30121       10.79910
H         -6.30761        0.84723        8.13687
H         -5.40628       -0.40560        6.22827

--Link1--
%chk=JID_10747.chk
%mem=8GB
%nprocshared=4
# B3LYP/6-311++G(d,p) empiricaldispersion=gd3bj scf=xqc pop=npa geom=check

CID_5353125_JID_10747_Energie_neutraal

0 1

--Link1--
%chk=JID_10747.chk
%mem=8GB
%nprocshared=4
# B3LYP/6-311++G(d,p) empiricaldispersion=gd3bj scf=xqc pop=npa geom=check

CID_5353125_JID_10747_Energie_kation

1 2

--Link1--
%chk=JID_10747.chk
%mem=8GB
%nprocshared=4
# B3LYP/6-311++G(d,p) empiricaldispersion=gd3bj scf=xqc pop=npa geom=check

CID_5353125_JID_10747_Energie_anion

-1 2
