%chk=JID_4514.chk
%mem=8GB
%nprocshared=4
# opt freq B3LYP/6-31G(d) empiricaldispersion=gd3bj scf=xqc

CID_77060767_JID_4514_neutraal

0 1
C          1.85400        1.50000       -0.02200
C          0.56841        0.72243       -0.05534
C          0.53810       -0.67903        0.07579
C         -0.69823       -1.34745        0.01373
C         -1.90000       -0.64757       -0.16538
C         -1.85581        0.74463       -0.28164
C         -0.63698        1.41996       -0.22572
C         -3.21548       -1.37655       -0.25704
S         -3.43867       -2.28724       -1.81134
C         -3.52523       -0.93102       -2.91567
N         -4.60258       -0.26032       -3.20762
N         -5.77968       -0.65678       -2.67282
N         -2.34102       -0.63130       -3.50764
C          1.78091       -1.51394        0.22550
H          2.34851        1.37546        0.94657
H          2.52154        1.16496       -0.82236
H          1.68225        2.57209       -0.16654
H         -0.72108       -2.43365        0.09508
H         -2.76879        1.31581       -0.43673
H         -0.63526        2.50310       -0.32969
H         -3.27767       -2.09472        0.56889
H         -4.05265       -0.68363       -0.11661
H         -5.68060       -1.17263       -1.79942
H         -6.40250        0.13744       -2.53075
H         -1.68025       -1.39580       -3.54127
H         -2.45206       -0.12264       -4.37519
H          1.64302       -2.25765        1.01789
H          1.99445       -2.03212       -0.71500
H          2.65861       -0.92193        0.49668

--Link1--
%chk=JID_4514.chk
%mem=8GB
%nprocshared=4
# B3LYP/6-311++G(d,p) empiricaldispersion=gd3bj scf=xqc pop=npa geom=check

CID_77060767_JID_4514_Energie_neutraal

0 1

--Link1--
%chk=JID_4514.chk
%mem=8GB
%nprocshared=4
# B3LYP/6-311++G(d,p) empiricaldispersion=gd3bj scf=xqc pop=npa geom=check

CID_77060767_JID_4514_Energie_kation

1 2

--Link1--
%chk=JID_4514.chk
%mem=8GB
%nprocshared=4
# B3LYP/6-311++G(d,p) empiricaldispersion=gd3bj scf=xqc pop=npa geom=check

CID_77060767_JID_4514_Energie_anion

-1 2
