%chk=JID_8046.chk
%mem=8GB
%nprocshared=4
# opt freq B3LYP/6-31G(d) empiricaldispersion=gd3bj scf=xqc

CID_80135664_JID_8046_neutraal

0 1
C          1.00476       -0.06449       -0.07628
C          0.18761        1.13496       -0.53163
C          0.69945        1.76582       -1.82865
C          0.70634        0.84607       -3.05393
C         -0.64534        0.22509       -3.42757
C         -1.76209        1.23400       -3.71454
N         -1.39506        2.07943       -4.85451
C         -2.42773        2.86516       -5.36888
C         -3.04121        3.92555       -4.73713
C         -4.03566        4.59859       -5.40955
N         -4.42820        4.25309       -6.65229
C         -3.77210        3.22319       -7.20044
N         -2.78921        2.51475       -6.61979
O         -4.64972        5.67068       -4.79454
C         -5.65246        6.29835       -5.58874
N         -2.63169        4.38315       -3.45384
O         -3.29205        3.98899       -2.48089
O         -1.65838        5.14726       -3.40298
H          0.91299       -0.90102       -0.77515
H          0.65253       -0.40934        0.90122
H          2.06406        0.19451        0.01764
H         -0.86315        0.84385       -0.63610
H          0.21983        1.89668        0.25687
H          0.10023        2.65804       -2.04529
H          1.72326        2.12589       -1.66540
H          1.08987        1.41642       -3.90907
H          1.42739        0.03533       -2.89435
H         -0.49655       -0.40584       -4.31342
H         -0.97438       -0.44781       -2.62732
H         -2.68032        0.67763       -3.94209
H         -1.95102        1.82978       -2.81909
H         -1.13124        1.48280       -5.64286
H         -4.05926        2.93233       -8.20568
H         -6.47110        5.60583       -5.81296
H         -6.06729        7.12735       -5.00730
H         -5.22612        6.71576       -6.50744

--Link1--
%chk=JID_8046.chk
%mem=8GB
%nprocshared=4
# B3LYP/6-311++G(d,p) empiricaldispersion=gd3bj scf=xqc pop=npa geom=check

CID_80135664_JID_8046_Energie_neutraal

0 1

--Link1--
%chk=JID_8046.chk
%mem=8GB
%nprocshared=4
# B3LYP/6-311++G(d,p) empiricaldispersion=gd3bj scf=xqc pop=npa geom=check

CID_80135664_JID_8046_Energie_kation

1 2

--Link1--
%chk=JID_8046.chk
%mem=8GB
%nprocshared=4
# B3LYP/6-311++G(d,p) empiricaldispersion=gd3bj scf=xqc pop=npa geom=check

CID_80135664_JID_8046_Energie_anion

-1 2
