%chk=JID_3407.chk
%mem=8GB
%nprocshared=4
# opt freq B3LYP/6-31G(d) empiricaldispersion=gd3bj scf=xqc

CID_145459712_JID_3407_neutraal

0 1
C          1.07218       -0.06915       -0.00277
N          1.27747       -1.11117       -0.99872
C          0.56705       -2.37430       -0.77728
C         -0.82460       -2.35356       -1.41472
C         -0.84607       -2.57720       -2.93306
N         -0.96687       -3.93473       -3.46096
C         -2.28460       -4.57100       -3.33559
C         -2.44853       -5.50680       -2.12713
O         -1.37564       -6.45041       -2.03576
C         -0.11723       -5.77239       -1.95565
C          0.11864       -4.87686       -3.18271
C          2.23819       -1.00953       -1.97090
N          3.00744       -0.01676       -2.23883
H          0.18163       -0.25776        0.60656
H          0.93039        0.90381       -0.48455
H          1.93615       -0.01080        0.66690
H          1.16405       -3.21680       -1.13683
H          0.45582       -2.53638        0.30245
H         -1.45652       -3.09233       -0.91604
H         -1.29522       -1.38323       -1.20792
H         -1.68842       -1.99857       -3.33623
H          0.03354       -2.10964       -3.38973
H         -2.42062       -5.17895       -4.23980
H         -3.09304       -3.83090       -3.35044
H         -2.51787       -4.95199       -1.18669
H         -3.37705       -6.07781       -2.23198
H          0.66454       -6.53716       -1.90480
H         -0.08048       -5.20574       -1.02009
H          0.19454       -5.53462       -4.05862
H          1.08537       -4.36691       -3.11264
H          2.33462       -1.92062       -2.58680
H          2.81550        0.75855       -1.60531

--Link1--
%chk=JID_3407.chk
%mem=8GB
%nprocshared=4
# B3LYP/6-311++G(d,p) empiricaldispersion=gd3bj scf=xqc pop=npa geom=check

CID_145459712_JID_3407_Energie_neutraal

0 1

--Link1--
%chk=JID_3407.chk
%mem=8GB
%nprocshared=4
# B3LYP/6-311++G(d,p) empiricaldispersion=gd3bj scf=xqc pop=npa geom=check

CID_145459712_JID_3407_Energie_kation

1 2

--Link1--
%chk=JID_3407.chk
%mem=8GB
%nprocshared=4
# B3LYP/6-311++G(d,p) empiricaldispersion=gd3bj scf=xqc pop=npa geom=check

CID_145459712_JID_3407_Energie_anion

-1 2
