%chk=JID_3247.chk
%mem=8GB
%nprocshared=4
# opt freq B3LYP/6-31G(d) empiricaldispersion=gd3bj scf=xqc

CID_150069348_JID_3247_neutraal

0 1
C          0.95854        0.08618        0.02924
C          0.51226        1.47388        0.46136
C          0.81475        2.57100       -0.56476
C          0.13336        2.40225       -1.93461
C         -1.40602        2.34561       -1.94095
N         -2.03257        3.61947       -1.56347
N         -2.29995        3.77368       -0.35894
N         -2.55139        3.89800        0.74559
O          0.62905        3.31612       -2.94505
C          0.63551        4.65338       -2.73785
O          0.33483        5.24063       -1.71135
O          1.06076        5.24532       -3.88373
C          1.10793        6.66868       -3.81381
H          0.36858       -0.28037       -0.81575
H          0.82849       -0.62292        0.85320
H          2.01515        0.08341       -0.25618
H         -0.55652        1.45521        0.69876
H          1.03053        1.72778        1.39423
H          0.53565        3.52597       -0.10963
H          1.90002        2.63181       -0.71915
H          0.46006        1.42829       -2.31841
H         -1.73681        2.12683       -2.96339
H         -1.77198        1.52556       -1.31178
H          0.11252        7.07778       -3.61345
H          1.82157        6.99257       -3.04966
H          1.44615        7.04504       -4.78328

--Link1--
%chk=JID_3247.chk
%mem=8GB
%nprocshared=4
# B3LYP/6-311++G(d,p) empiricaldispersion=gd3bj scf=xqc pop=npa geom=check

CID_150069348_JID_3247_Energie_neutraal

0 1

--Link1--
%chk=JID_3247.chk
%mem=8GB
%nprocshared=4
# B3LYP/6-311++G(d,p) empiricaldispersion=gd3bj scf=xqc pop=npa geom=check

CID_150069348_JID_3247_Energie_kation

1 2

--Link1--
%chk=JID_3247.chk
%mem=8GB
%nprocshared=4
# B3LYP/6-311++G(d,p) empiricaldispersion=gd3bj scf=xqc pop=npa geom=check

CID_150069348_JID_3247_Energie_anion

-1 2
