%chk=JID_5936.chk
%mem=8GB
%nprocshared=4
# opt freq B3LYP/6-31G(d) empiricaldispersion=gd3bj scf=xqc

CID_63922283_JID_5936_neutraal

0 1
C          1.65700        1.27500        0.13300
C          2.33529       -0.09886        0.23502
C          1.41580       -1.25796        0.70449
C          0.19796       -1.38587       -0.23950
S         -0.75125        0.10130       -0.39134
O         -1.64075       -0.04912       -1.52548
O         -1.28253        0.44644        0.91456
C          0.49162        1.28852       -0.83778
C          0.98053       -1.03988        2.18393
O         -0.03534       -1.96544        2.56348
N          2.06164       -2.59159        0.55816
C          3.46134       -2.78140        0.89823
C          3.75464       -3.01637        2.34855
C          2.81954       -3.67762        3.34173
C          3.98980       -4.44117        2.81026
H          1.32700        1.60921        1.12214
H          2.40137        2.00726       -0.20244
H          3.18150        0.00735        0.92574
H          2.75959       -0.34200       -0.74867
H         -0.49813       -2.17157        0.07683
H          0.52350       -1.63430       -1.25882
H          0.82458        1.04664       -1.85250
H          0.01105        2.27123       -0.85786
H          1.82691       -1.16634        2.86449
H          0.60987       -0.03053        2.37728
H         -0.88520       -1.48571        2.50217
H          1.49683       -3.28631        1.05403
H          3.80257       -3.65883        0.33456
H          4.09047       -1.96943        0.51983
H          4.43310       -2.26232        2.73568
H          2.86077       -3.33665        4.37129
H          1.82889       -3.99051        3.03696
H          3.77525       -5.25967        2.13075
H          4.82085       -4.63261        3.47891

--Link1--
%chk=JID_5936.chk
%mem=8GB
%nprocshared=4
# B3LYP/6-311++G(d,p) empiricaldispersion=gd3bj scf=xqc pop=npa geom=check

CID_63922283_JID_5936_Energie_neutraal

0 1

--Link1--
%chk=JID_5936.chk
%mem=8GB
%nprocshared=4
# B3LYP/6-311++G(d,p) empiricaldispersion=gd3bj scf=xqc pop=npa geom=check

CID_63922283_JID_5936_Energie_kation

1 2

--Link1--
%chk=JID_5936.chk
%mem=8GB
%nprocshared=4
# B3LYP/6-311++G(d,p) empiricaldispersion=gd3bj scf=xqc pop=npa geom=check

CID_63922283_JID_5936_Energie_anion

-1 2
