%chk=JID_2159.chk
%mem=8GB
%nprocshared=4
# opt freq B3LYP/6-31G(d) empiricaldispersion=gd3bj scf=xqc

CID_130914123_JID_2159_neutraal

0 1
C          1.06418       -0.07225        0.02571
C          0.55751        1.24309       -0.54313
C          1.06417        1.40812       -1.96667
C          1.49878        1.54969       -3.18778
N         -0.90344        1.20695       -0.54292
C         -1.59013        2.50783       -0.40803
C         -1.14226        3.58646       -1.40050
C         -3.13107        2.27545       -0.55045
C         -3.97709        3.44587       -0.04016
C         -5.08982        2.78312        0.75025
C         -4.40948        1.55019        1.30542
N         -3.60583        1.08052        0.18230
H          0.73234       -0.93162       -0.56966
H          0.71452       -0.21827        1.05406
H          2.16007       -0.09235        0.04200
H          0.93594        2.05962        0.08287
H          1.85299        1.66428       -4.18618
H         -1.23775        0.72253       -1.37710
H         -1.39004        2.87115        0.60856
H         -1.26660        3.25240       -2.43617
H         -1.72971        4.50233       -1.27638
H         -0.09515        3.86531       -1.24747
H         -3.36271        2.09961       -1.60929
H         -3.39936        4.09843        0.62507
H         -4.37432        4.05727       -0.85657
H         -5.48699        3.43437        1.53403
H         -5.91434        2.50364        0.08278
H         -3.76550        1.81020        2.15356
H         -5.12811        0.79283        1.63009
H         -2.78799        0.55581        0.50583

--Link1--
%chk=JID_2159.chk
%mem=8GB
%nprocshared=4
# B3LYP/6-311++G(d,p) empiricaldispersion=gd3bj scf=xqc pop=npa geom=check

CID_130914123_JID_2159_Energie_neutraal

0 1

--Link1--
%chk=JID_2159.chk
%mem=8GB
%nprocshared=4
# B3LYP/6-311++G(d,p) empiricaldispersion=gd3bj scf=xqc pop=npa geom=check

CID_130914123_JID_2159_Energie_kation

1 2

--Link1--
%chk=JID_2159.chk
%mem=8GB
%nprocshared=4
# B3LYP/6-311++G(d,p) empiricaldispersion=gd3bj scf=xqc pop=npa geom=check

CID_130914123_JID_2159_Energie_anion

-1 2
