%chk=JID_4397.chk
%mem=8GB
%nprocshared=4
# opt freq B3LYP/6-31G(d) empiricaldispersion=gd3bj scf=xqc

CID_131103063_JID_4397_neutraal

0 1
C          1.00947       -0.05423        0.08348
C          0.48112       -0.39686        1.46967
C          1.56453       -0.29770        2.56148
N          2.19429        1.01059        2.67500
C          1.79241        2.17730        3.28917
O          2.56501        3.13767        3.20752
C          0.51619        2.30167        4.07170
N         -0.11716        1.14871        4.45412
C         -1.19305        1.31609        5.25677
C         -1.63540        2.56284        5.65592
N         -1.02844        3.70569        5.26784
C          0.05715        3.57461        4.46838
N          0.57369        4.77916        4.00098
O         -0.63814        0.44341        1.74050
H          1.30839        0.99764        0.02053
H          0.22490       -0.19842       -0.66745
H          1.86514       -0.68166       -0.18344
H          0.10641       -1.42666        1.45630
H          1.16293       -0.58655        3.53493
H          2.37136       -1.00310        2.33100
H          3.06227        1.14056        2.16953
H         -1.69812        0.41082        5.57620
H         -2.50143        2.68056        6.29785
H          0.18128        5.55356        4.52354
H          1.59243        4.76675        3.93755
H         -0.73136        0.49132        2.71168

--Link1--
%chk=JID_4397.chk
%mem=8GB
%nprocshared=4
# B3LYP/6-311++G(d,p) empiricaldispersion=gd3bj scf=xqc pop=npa geom=check

CID_131103063_JID_4397_Energie_neutraal

0 1

--Link1--
%chk=JID_4397.chk
%mem=8GB
%nprocshared=4
# B3LYP/6-311++G(d,p) empiricaldispersion=gd3bj scf=xqc pop=npa geom=check

CID_131103063_JID_4397_Energie_kation

1 2

--Link1--
%chk=JID_4397.chk
%mem=8GB
%nprocshared=4
# B3LYP/6-311++G(d,p) empiricaldispersion=gd3bj scf=xqc pop=npa geom=check

CID_131103063_JID_4397_Energie_anion

-1 2
