%chk=JID_5384.chk
%mem=8GB
%nprocshared=4
# opt freq B3LYP/6-31G(d) empiricaldispersion=gd3bj scf=xqc

CID_101478681_JID_5384_neutraal

0 1
C          1.02545        0.09651       -0.00608
C          0.54999        0.21580        1.41625
C          0.41726        1.47507        2.01176
C          0.71822        2.82865        1.43020
C          0.00826        3.76165        2.41999
C          0.01892        3.04878        3.77465
C          0.01425        1.61404        3.34695
C         -0.27936        0.51301        4.12731
C         -0.17206       -0.75238        3.55321
C          0.25111       -0.92298        2.21123
C          0.44022       -2.29147        1.64137
O          1.26586       -2.59253        0.79611
O         -0.46541       -3.14910        2.18907
C         -0.39351       -4.47705        1.66085
O         -0.48566       -1.78940        4.39509
H          0.99686        1.05286       -0.53541
H          0.38171       -0.58333       -0.57367
H          2.05968       -0.26062       -0.03039
H          1.79913        3.00292        1.42699
H          0.31172        2.96107        0.42411
H          0.46950        4.75316        2.46438
H         -1.03234        3.90397        2.09631
H          0.93378        3.27162        4.33330
H         -0.85882        3.31145        4.37173
H         -0.58176        0.62363        5.16391
H         -0.60092       -4.47344        0.58623
H          0.58626       -4.91865        1.86795
H         -1.15743       -5.07988        2.15950
H         -0.60091       -2.59467        3.85503

--Link1--
%chk=JID_5384.chk
%mem=8GB
%nprocshared=4
# B3LYP/6-311++G(d,p) empiricaldispersion=gd3bj scf=xqc pop=npa geom=check

CID_101478681_JID_5384_Energie_neutraal

0 1

--Link1--
%chk=JID_5384.chk
%mem=8GB
%nprocshared=4
# B3LYP/6-311++G(d,p) empiricaldispersion=gd3bj scf=xqc pop=npa geom=check

CID_101478681_JID_5384_Energie_kation

1 2

--Link1--
%chk=JID_5384.chk
%mem=8GB
%nprocshared=4
# B3LYP/6-311++G(d,p) empiricaldispersion=gd3bj scf=xqc pop=npa geom=check

CID_101478681_JID_5384_Energie_anion

-1 2
