%chk=JID_6979.chk
%mem=8GB
%nprocshared=4
# opt freq B3LYP/6-31G(d) empiricaldispersion=gd3bj scf=xqc

CID_82888329_JID_6979_neutraal

0 1
C          0.98364        0.06532       -0.07393
C          0.53468        0.80109       -1.33923
C          0.02782        2.20315       -0.97677
C         -0.70061        2.94634       -2.10849
C          0.22890        3.69688       -3.05090
C          1.10302        2.99861       -3.91074
C          1.14380        1.49284       -3.96011
S          1.94855        0.79339       -2.49564
C          1.97530        3.71994       -4.74534
C          1.97947        5.11385       -4.75211
C          1.10859        5.82735       -3.92694
C          0.24190        5.10747       -3.08777
C          1.11995        7.34574       -3.94957
C         -0.22922        7.91499       -4.39540
C          1.53537        7.92326       -2.59408
O         -1.64068        3.84284       -1.50065
H          1.31343       -0.95570       -0.29778
H          0.15278       -0.01575        0.63616
H          1.80090        0.58946        0.43495
H         -0.27686        0.21948       -1.79182
H         -0.68107        2.09080       -0.14369
H          0.84317        2.82069       -0.57525
H         -1.31340        2.25237       -2.69425
H          1.71975        1.16223       -4.83213
H          0.14083        1.07463       -4.09740
H          2.66814        3.19443       -5.40024
H          2.66962        5.63545       -5.41129
H         -0.44274        5.66799       -2.45493
H          1.86648        7.67804       -4.68330
H         -1.02837        7.68349       -3.68291
H         -0.17431        9.00500       -4.48928
H         -0.52266        7.50887       -5.36982
H          2.50766        7.52660       -2.28103
H          1.62074        9.01386       -2.65025
H          0.81010        7.68684       -1.80787
H         -1.16556        4.32450       -0.80216

--Link1--
%chk=JID_6979.chk
%mem=8GB
%nprocshared=4
# B3LYP/6-311++G(d,p) empiricaldispersion=gd3bj scf=xqc pop=npa geom=check

CID_82888329_JID_6979_Energie_neutraal

0 1

--Link1--
%chk=JID_6979.chk
%mem=8GB
%nprocshared=4
# B3LYP/6-311++G(d,p) empiricaldispersion=gd3bj scf=xqc pop=npa geom=check

CID_82888329_JID_6979_Energie_kation

1 2

--Link1--
%chk=JID_6979.chk
%mem=8GB
%nprocshared=4
# B3LYP/6-311++G(d,p) empiricaldispersion=gd3bj scf=xqc pop=npa geom=check

CID_82888329_JID_6979_Energie_anion

-1 2
