%chk=JID_10577.chk
%mem=8GB
%nprocshared=4
# opt=(cartesian,calcfc) freq B3LYP/6-31G(d) empiricaldispersion=gd3bj scf=xqc

CID_20594473_JID_10577_neutraal

0 1
6	-1.429303	 -1.326300	 1.047142
6	-2.116221	 -0.802464	 -0.204453
6	-1.863748	 -1.478426	 -1.482754
8	-3.085202	 -1.702369	 -0.760271
6	-2.500379	 0.663201	 -0.174611
6	-1.519365	 1.679973	 -0.749680
8	-0.178897	 1.174374	 -0.796977
6	0.653958	 1.513435	 0.223934
8	0.419151	 2.353836	 1.056541
6	1.951961	 0.775816	 0.078780
6	3.081997	 1.530059	 -0.242126
6	4.297780	 0.899971	 -0.505255
6	4.397722	 -0.490419	 -0.425457
6	3.285051	 -1.245113	 -0.064752
6	2.059046	 -0.623963	 0.192862
6	0.910867	 -1.493546	 0.569719
8	0.890221	 -2.701138	 0.452548
8	-0.106347	 -0.763740	 1.102421
6	-3.933093	 1.026617	 -0.168591
8	-3.162624	 1.055462	 1.049493
1	-1.947599	 -0.983512	 1.946173
1	-1.371573	 -2.414551	 1.021414
1	-1.966921	 -0.920843	 -2.416004
1	-1.173126	 -2.319890	 -1.512506
1	-1.770113	 1.901630	 -1.788209
1	-1.560919	 2.590583	 -0.151351
1	2.993830	 2.611050	 -0.307894
1	5.163152	 1.496480	 -0.779488
1	5.340389	 -0.982812	 -0.640996
1	3.339424	 -2.323618	 0.021726
1	-4.237739	 2.004527	 -0.544583
1	-4.676877	 0.236510	 -0.246884

--Link1--
%chk=JID_10577.chk
%mem=8GB
%nprocshared=4
# B3LYP/6-311++G(d,p) empiricaldispersion=gd3bj scf=xqc pop=npa geom=check

CID_20594473_JID_10577_Energie_neutraal

0 1

--Link1--
%chk=JID_10577.chk
%mem=8GB
%nprocshared=4
# B3LYP/6-311++G(d,p) empiricaldispersion=gd3bj scf=xqc pop=npa geom=check

CID_20594473_JID_10577_Energie_kation

1 2

--Link1--
%chk=JID_10577.chk
%mem=8GB
%nprocshared=4
# B3LYP/6-311++G(d,p) empiricaldispersion=gd3bj scf=xqc pop=npa geom=check

CID_20594473_JID_10577_Energie_anion

-1 2
