%chk=JID_9336.chk
%mem=8GB
%nprocshared=4
# opt freq B3LYP/6-31G(d) empiricaldispersion=gd3bj scf=xqc

CID_117529455_JID_9336_neutraal

0 1
C          0.92667       -0.01183        0.06696
O          0.11075        0.60899        1.05322
C          0.73382        0.99242        2.21029
C         -0.04983        1.75637        3.07540
C          0.46760        2.23512        4.27970
C          1.78597        1.93186        4.62352
C          2.58965        1.13449        3.78433
C          2.04504        0.67976        2.57166
C          4.02494        0.82812        4.20783
C          4.56291       -0.59624        3.80157
N          5.04803       -0.63606        2.42146
C          5.69733       -1.86060        1.98810
C          6.40976       -1.41446        0.70723
C          6.41178        0.12019        0.74504
C          6.01682        0.43615        2.17582
C          5.39063        1.81489        2.42817
N          4.93610        1.94696        3.83242
O         -0.40694        2.98140        5.02188
C          0.07716        3.50607        6.25100
H          0.30806       -0.17900       -0.82013
H          1.28382       -0.98820        0.41052
H          1.76002        0.63549       -0.22664
H         -1.07418        1.99419        2.80025
H          2.22304        2.30843        5.54303
H          2.66534        0.08604        1.91043
H          4.00820        0.81122        5.30716
H          5.38518       -0.85299        4.48346
H          3.77624       -1.34655        3.94473
H          4.97924       -2.66256        1.79228
H          6.43206       -2.21755        2.72006
H          5.88449       -1.76793       -0.18697
H          7.43143       -1.80823        0.67808
H          5.67727        0.51009        0.02937
H          7.39146        0.53131        0.48281
H          6.89663        0.31658        2.82628
H          4.55466        2.00405        1.74459
H          6.13315        2.59608        2.22976
H          5.76185        1.86972        4.42422
H          0.35937        2.70272        6.93960
H          0.91023        4.19699        6.08499
H         -0.73609        4.07137        6.71635

--Link1--
%chk=JID_9336.chk
%mem=8GB
%nprocshared=4
# B3LYP/6-311++G(d,p) empiricaldispersion=gd3bj scf=xqc pop=npa geom=check

CID_117529455_JID_9336_Energie_neutraal

0 1

--Link1--
%chk=JID_9336.chk
%mem=8GB
%nprocshared=4
# B3LYP/6-311++G(d,p) empiricaldispersion=gd3bj scf=xqc pop=npa geom=check

CID_117529455_JID_9336_Energie_kation

1 2

--Link1--
%chk=JID_9336.chk
%mem=8GB
%nprocshared=4
# B3LYP/6-311++G(d,p) empiricaldispersion=gd3bj scf=xqc pop=npa geom=check

CID_117529455_JID_9336_Energie_anion

-1 2
