%chk=JID_6593.chk
%mem=8GB
%nprocshared=4
# opt freq B3LYP/6-31G(d) empiricaldispersion=gd3bj scf=xqc

CID_137718340_JID_6593_neutraal

0 1
C          1.34400       -0.22500        0.03600
C          0.89946        0.82213       -0.76877
C         -0.46006        0.95447       -1.05597
C         -1.39094        0.04160       -0.53750
C         -0.92875       -1.01090        0.26625
C          0.43100       -1.14197        0.55224
C         -2.86185        0.18141       -0.83896
S         -3.62894        1.65943       -0.09741
C         -3.38035        1.31467        1.67811
C         -4.23664        0.15029        2.14774
O         -3.94711       -1.02589        1.91040
N         -5.36442        0.43119        2.87945
N         -5.84273        1.69194        3.04875
C         -6.87449        1.80148        3.81878
N         -7.44610        0.84523        4.59145
N         -7.51897        2.97965        3.96622
H          2.40244       -0.32708        0.25978
H          1.61081        1.53776       -1.17236
H         -0.79355        1.77906       -1.68292
H         -1.62972       -1.73310        0.68219
H          0.77578       -1.95980        1.17944
H         -2.98300        0.25859       -1.92611
H         -3.42015       -0.71285       -0.54619
H         -2.33105        1.09454        1.89468
H         -3.61332        2.22662        2.23408
H         -5.97079       -0.35174        3.09536
H         -7.87061        1.24566        5.42163
H         -6.78627        0.12762        4.86759
H         -7.17296        3.65531        3.28940
H         -8.52439        2.88741        3.87868

--Link1--
%chk=JID_6593.chk
%mem=8GB
%nprocshared=4
# B3LYP/6-311++G(d,p) empiricaldispersion=gd3bj scf=xqc pop=npa geom=check

CID_137718340_JID_6593_Energie_neutraal

0 1

--Link1--
%chk=JID_6593.chk
%mem=8GB
%nprocshared=4
# B3LYP/6-311++G(d,p) empiricaldispersion=gd3bj scf=xqc pop=npa geom=check

CID_137718340_JID_6593_Energie_kation

1 2

--Link1--
%chk=JID_6593.chk
%mem=8GB
%nprocshared=4
# B3LYP/6-311++G(d,p) empiricaldispersion=gd3bj scf=xqc pop=npa geom=check

CID_137718340_JID_6593_Energie_anion

-1 2
