%chk=JID_10140.chk
%mem=8GB
%nprocshared=4
# opt freq B3LYP/6-31G(d) empiricaldispersion=gd3bj scf=xqc

CID_63916333_JID_10140_neutraal

0 1
C          0.99988        0.06214       -0.07835
C          0.29397       -1.26412       -0.30134
C          0.99749       -2.45553        0.35869
N          0.83757       -2.43748        1.81287
C          1.48196       -3.56718        2.54836
C          3.03521       -3.41656        2.66026
S          3.66796       -2.07472        3.75504
C          3.91120       -0.69654        2.63748
C          4.64588       -0.87262        1.45574
C          4.90039        0.20170        0.60092
C          4.43674        1.47138        0.92436
C          3.72780        1.66932        2.10751
C          3.46540        0.59812        2.98015
C          2.72619        0.88455        4.26077
C          0.86692       -3.66204        3.95836
C          0.32553       -2.47716        4.73660
C         -0.62194       -3.51230        4.20500
C          1.26574       -4.91747        1.79177
O          1.97507       -5.36112        0.89768
O          0.16148       -5.60647        2.14986
H          1.02595        0.32986        0.98120
H          0.47437        0.86187       -0.61007
H          2.02376        0.02385       -0.45954
H         -0.74165       -1.19316        0.05339
H          0.24098       -1.44775       -1.38149
H          0.52863       -3.35457       -0.05527
H          2.05458       -2.46091        0.07330
H          1.21785       -1.56886        2.18906
H          3.43868       -4.33782        3.10115
H          3.49523       -3.34957        1.67034
H          5.05821       -1.84353        1.19441
H          5.47066        0.04698       -0.31133
H          4.63592        2.31076        0.26313
H          3.38667        2.67331        2.35267
H          1.78213        0.33402        4.28866
H          3.33907        0.61706        5.12753
H          2.48281        1.94853        4.35495
H          1.36081       -4.43808        4.53953
H          0.50689       -2.45317        5.80535
H          0.28575       -1.49690        4.28002
H         -1.26186       -3.23864        3.37335
H         -1.08646       -4.19237        4.90954
H          0.14682       -6.37315        1.54199

--Link1--
%chk=JID_10140.chk
%mem=8GB
%nprocshared=4
# B3LYP/6-311++G(d,p) empiricaldispersion=gd3bj scf=xqc pop=npa geom=check

CID_63916333_JID_10140_Energie_neutraal

0 1

--Link1--
%chk=JID_10140.chk
%mem=8GB
%nprocshared=4
# B3LYP/6-311++G(d,p) empiricaldispersion=gd3bj scf=xqc pop=npa geom=check

CID_63916333_JID_10140_Energie_kation

1 2

--Link1--
%chk=JID_10140.chk
%mem=8GB
%nprocshared=4
# B3LYP/6-311++G(d,p) empiricaldispersion=gd3bj scf=xqc pop=npa geom=check

CID_63916333_JID_10140_Energie_anion

-1 2
