%chk=JID_8561.chk
%mem=8GB
%nprocshared=4
# opt freq B3LYP/6-31G(d) empiricaldispersion=gd3bj scf=xqc

CID_104997942_JID_8561_neutraal

0 1
C          0.97717        0.05465        0.08058
N          0.56645       -1.20757       -0.51561
C         -0.87578       -1.48969       -0.36380
C         -1.78894       -0.51203       -1.15189
C         -1.55835       -0.36240       -2.66698
C         -2.46755       -1.17691       -3.60476
C         -3.97051       -0.89575       -3.42678
C         -4.71968       -2.08089       -2.83096
C         -4.43709       -3.36874       -3.59934
C         -3.05229       -3.38121       -4.23453
O         -2.15560       -2.56719       -3.48403
C         -1.17003       -2.95911       -0.73564
C         -0.82072       -3.94293        0.33625
N         -0.85298       -3.76311        1.64311
C         -0.47146       -4.97348        2.14136
N         -0.24653       -5.91995        1.22923
N         -0.48702       -5.24930        0.08696
C         -0.41649       -5.93496       -1.17712
H          0.68818        0.11230        1.13479
H          0.56486        0.91473       -0.45472
H          2.06802        0.13409        0.03748
H          0.84432       -1.24300       -1.49320
H         -1.13406       -1.35760        0.69595
H         -2.83446       -0.76221       -0.94464
H         -1.65691        0.48451       -0.70905
H         -1.71199        0.69664       -2.91510
H         -0.51535       -0.58148       -2.91579
H         -2.19159       -0.87716       -4.62536
H         -4.39833       -0.68922       -4.41729
H         -4.14543        0.01311       -2.84034
H         -4.41556       -2.21493       -1.78665
H         -5.79743       -1.88402       -2.81503
H         -4.53230       -4.21321       -2.90575
H         -5.19119       -3.52994       -4.37846
H         -2.65719       -4.40207       -4.25430
H         -3.08822       -3.02803       -5.27230
H         -2.24167       -3.08350       -0.93016
H         -0.63291       -3.21384       -1.65615
H         -0.36337       -5.17263        3.19928
H          0.59275       -5.81371       -1.57642
H         -0.63825       -6.99458       -1.02243
H         -1.15574       -5.51459       -1.86299

--Link1--
%chk=JID_8561.chk
%mem=8GB
%nprocshared=4
# B3LYP/6-311++G(d,p) empiricaldispersion=gd3bj scf=xqc pop=npa geom=check

CID_104997942_JID_8561_Energie_neutraal

0 1

--Link1--
%chk=JID_8561.chk
%mem=8GB
%nprocshared=4
# B3LYP/6-311++G(d,p) empiricaldispersion=gd3bj scf=xqc pop=npa geom=check

CID_104997942_JID_8561_Energie_kation

1 2

--Link1--
%chk=JID_8561.chk
%mem=8GB
%nprocshared=4
# B3LYP/6-311++G(d,p) empiricaldispersion=gd3bj scf=xqc pop=npa geom=check

CID_104997942_JID_8561_Energie_anion

-1 2
