%chk=JID_8920.chk
%mem=8GB
%nprocshared=4
# opt freq B3LYP/6-31G(d) empiricaldispersion=gd3bj scf=xqc

CID_54932845_JID_8920_neutraal

0 1
C          2.49200        0.00400       -0.01400
C          0.98732        0.05314        0.06194
C          0.18574       -1.06102       -0.28675
C         -1.20834       -0.90540       -0.22125
C         -1.80071        0.27996        0.23013
C         -1.00391        1.35989        0.60267
C          0.38626        1.24362        0.51776
C         -1.61114        2.63635        1.05298
S         -2.86999        2.77192        2.14144
N         -1.07942        3.77718        0.50765
N          0.78480       -2.21088       -0.82967
C          0.12300       -3.50703       -0.70824
C          0.78941       -4.56166       -1.60173
C          2.20174       -4.98695       -1.18067
C          2.61222       -6.30625       -1.84416
C          4.12649       -6.29397       -1.74035
C          4.48441       -4.85966       -2.09045
C          3.31983       -4.00927       -1.57992
H          2.88251       -0.72633        0.70193
H          2.81524       -0.26276       -1.02551
H          2.94134        0.97420        0.22355
H         -1.87817       -1.69730       -0.54012
H         -2.88513        0.34998        0.25716
H          1.01277        2.08090        0.81781
H         -0.39655        3.76148       -0.23956
H         -1.50005        4.66943        0.74123
H          1.75592       -2.27277       -0.54309
H          0.13309       -3.83501        0.33781
H         -0.92029       -3.45136       -1.03293
H          0.14493       -5.45065       -1.57796
H          0.79709       -4.21371       -2.64256
H          2.22893       -5.12807       -0.09172
H          2.17359       -7.17390       -1.34172
H          2.30561       -6.32991       -2.89726
H          4.59753       -7.01615       -2.41325
H          4.44013       -6.52390       -0.71537
H          4.56719       -4.75086       -3.17863
H          5.44098       -4.55575       -1.65480
H          3.00507       -3.30633       -2.35903
H          3.63490       -3.41885       -0.71233

--Link1--
%chk=JID_8920.chk
%mem=8GB
%nprocshared=4
# B3LYP/6-311++G(d,p) empiricaldispersion=gd3bj scf=xqc pop=npa geom=check

CID_54932845_JID_8920_Energie_neutraal

0 1

--Link1--
%chk=JID_8920.chk
%mem=8GB
%nprocshared=4
# B3LYP/6-311++G(d,p) empiricaldispersion=gd3bj scf=xqc pop=npa geom=check

CID_54932845_JID_8920_Energie_kation

1 2

--Link1--
%chk=JID_8920.chk
%mem=8GB
%nprocshared=4
# B3LYP/6-311++G(d,p) empiricaldispersion=gd3bj scf=xqc pop=npa geom=check

CID_54932845_JID_8920_Energie_anion

-1 2
