%chk=JID_6756.chk
%mem=8GB
%nprocshared=4
# opt freq B3LYP/6-31G(d) empiricaldispersion=gd3bj scf=xqc

CID_105476680_JID_6756_neutraal

0 1
C          1.78700        0.09100       -0.05500
C          0.96887        1.25056        0.49866
C         -0.17047        1.69890       -0.40737
C         -1.46965        0.92888       -0.16784
C         -1.49340       -0.53703       -0.63267
C         -0.35828       -1.36868        0.01417
C          1.03092       -1.12660       -0.57619
N         -1.60904       -0.75857       -2.07472
C         -1.84701        0.09014       -3.10154
C         -1.84178       -0.63691       -4.24993
C         -2.06448        0.21227       -5.41573
N         -2.49158        1.52193       -4.79424
C         -2.09898        1.50552       -3.33992
C         -1.63890       -1.95129       -3.86158
N         -1.52799       -2.04469       -2.53495
N         -1.56259       -2.99892       -4.68790
H          2.47124       -0.23746        0.73843
H          2.43521        0.46145       -0.85989
H          0.59140        1.00246        1.49800
H          1.65381        2.09628        0.64189
H          0.13974        1.65578       -1.45508
H         -0.37602        2.75421       -0.18649
H         -2.29904        1.47683       -0.62646
H         -1.68636        0.94906        0.90936
H         -2.43725       -0.95114       -0.24695
H         -0.59303       -2.43346       -0.11908
H         -0.34520       -1.21250        1.10000
H          0.97936       -1.06885       -1.66902
H          1.64969       -2.00987       -0.36869
H         -2.84788       -0.16465       -6.07875
H         -1.14265        0.36689       -5.98462
H         -3.51189        1.50864       -4.80642
H         -1.20247        2.11721       -3.21545
H         -2.91544        1.91354       -2.73948
H         -1.20947       -3.85564       -4.27593
H         -1.29029       -2.87038       -5.65313

--Link1--
%chk=JID_6756.chk
%mem=8GB
%nprocshared=4
# B3LYP/6-311++G(d,p) empiricaldispersion=gd3bj scf=xqc pop=npa geom=check

CID_105476680_JID_6756_Energie_neutraal

0 1

--Link1--
%chk=JID_6756.chk
%mem=8GB
%nprocshared=4
# B3LYP/6-311++G(d,p) empiricaldispersion=gd3bj scf=xqc pop=npa geom=check

CID_105476680_JID_6756_Energie_kation

1 2

--Link1--
%chk=JID_6756.chk
%mem=8GB
%nprocshared=4
# B3LYP/6-311++G(d,p) empiricaldispersion=gd3bj scf=xqc pop=npa geom=check

CID_105476680_JID_6756_Energie_anion

-1 2
