%chk=JID_5148.chk
%mem=8GB
%nprocshared=4
# opt freq B3LYP/6-31G(d) empiricaldispersion=gd3bj scf=xqc

CID_102101689_JID_5148_neutraal

0 1
C          1.09278       -0.00517        0.03696
C          0.56124        0.72953        1.27683
C          1.55391        1.84392        1.65699
C         -0.78811        1.37185        0.90622
N          0.32267       -0.16073        2.43903
C          1.35268       -0.83761        3.05076
O          1.74467       -0.38439        4.12478
N          1.79110       -2.00657        2.43611
C          0.84558       -2.79888        1.65113
C          3.07850       -2.59446        2.73553
C          3.40981       -3.89130        2.30113
C          4.65984       -4.46219        2.57472
C          5.61613       -3.74469        3.28175
C          5.32433       -2.45435        3.70467
C          4.07416       -1.88602        3.42697
H          1.21351        0.68498       -0.80647
H          0.40509       -0.79355       -0.28559
H          2.07158       -0.45935        0.22094
H          1.68041        2.56052        0.83768
H          1.20797        2.39803        2.53720
H          2.54219        1.43462        1.89519
H         -1.52705        0.60709        0.63973
H         -1.20003        1.94212        1.74716
H         -0.68764        2.05572        0.05605
H         -0.08868        0.39226        3.18233
H          1.26754       -3.00144        0.66202
H          0.63784       -3.73681        2.17722
H         -0.11908       -2.30222        1.52191
H          2.70851       -4.50390        1.74427
H          4.88073       -5.47035        2.23351
H          6.58475       -4.18593        3.49887
H          6.06609       -1.87866        4.25250
H          3.91679       -0.86583        3.76372

--Link1--
%chk=JID_5148.chk
%mem=8GB
%nprocshared=4
# B3LYP/6-311++G(d,p) empiricaldispersion=gd3bj scf=xqc pop=npa geom=check

CID_102101689_JID_5148_Energie_neutraal

0 1

--Link1--
%chk=JID_5148.chk
%mem=8GB
%nprocshared=4
# B3LYP/6-311++G(d,p) empiricaldispersion=gd3bj scf=xqc pop=npa geom=check

CID_102101689_JID_5148_Energie_kation

1 2

--Link1--
%chk=JID_5148.chk
%mem=8GB
%nprocshared=4
# B3LYP/6-311++G(d,p) empiricaldispersion=gd3bj scf=xqc pop=npa geom=check

CID_102101689_JID_5148_Energie_anion

-1 2
