%chk=JID_9095.chk
%mem=8GB
%nprocshared=4
# opt freq B3LYP/6-31G(d) empiricaldispersion=gd3bj scf=xqc

CID_112524140_JID_9095_neutraal

0 1
C          0.99400       -1.39700        0.02200
C          2.23650       -0.80756       -0.24695
C          2.33838        0.52435       -0.67674
C          1.17431        1.30459       -0.79107
C         -0.05949        0.69958       -0.51598
C         -0.17590       -0.63062       -0.11858
C         -1.56092       -0.89358        0.06807
C         -2.24907        0.26525       -0.21050
N         -1.33280        1.22253       -0.55753
C          3.70999        1.11623       -0.92344
C          3.77297        2.16770       -2.01207
O          3.57740        3.35853       -1.73656
N          4.08484        1.88906       -3.30832
C          4.28530        0.70643       -4.04069
C          4.01394       -0.58781       -3.65284
N          4.24348       -1.67949       -4.42191
C          4.74558       -1.44630       -5.64191
N          5.02996       -0.24084       -6.14951
C          4.78555        0.80595       -5.33115
H          0.93763       -2.43287        0.34329
H          3.13177       -1.41322       -0.11570
H          1.21684        2.35259       -1.07526
H         -2.00352       -1.83115        0.37744
H         -3.30650        0.49146       -0.18838
H         -1.55141        2.17646       -0.80979
H          4.03656        1.59744        0.00844
H          4.45969        0.34372       -1.11990
H          4.18254        2.75535       -3.82939
H          3.55939       -0.83872       -2.70701
H          4.93417       -2.30781       -6.27289
H          5.02896        1.77052       -5.76956

--Link1--
%chk=JID_9095.chk
%mem=8GB
%nprocshared=4
# B3LYP/6-311++G(d,p) empiricaldispersion=gd3bj scf=xqc pop=npa geom=check

CID_112524140_JID_9095_Energie_neutraal

0 1

--Link1--
%chk=JID_9095.chk
%mem=8GB
%nprocshared=4
# B3LYP/6-311++G(d,p) empiricaldispersion=gd3bj scf=xqc pop=npa geom=check

CID_112524140_JID_9095_Energie_kation

1 2

--Link1--
%chk=JID_9095.chk
%mem=8GB
%nprocshared=4
# B3LYP/6-311++G(d,p) empiricaldispersion=gd3bj scf=xqc pop=npa geom=check

CID_112524140_JID_9095_Energie_anion

-1 2
