%chk=JID_9259.chk
%mem=8GB
%nprocshared=4
# opt freq B3LYP/6-31G(d) empiricaldispersion=gd3bj scf=xqc

CID_107806641_JID_9259_neutraal

0 1
C          0.91212        0.04178        0.02307
C          1.00831       -0.37885       -1.43658
C          1.64247       -1.75371       -1.76147
C          2.83774       -2.16190       -0.86274
N          2.48386       -2.64726        0.48142
C          1.45499       -3.71513        0.43393
C          0.21884       -3.35020       -0.45474
N          0.60266       -2.81247       -1.77888
C          0.44177       -3.66048       -2.87386
C         -0.82251       -4.22640       -3.12642
C         -1.00870       -5.08094       -4.22811
C          0.03463       -5.39360       -5.09831
C          1.29757       -4.82789       -4.85594
C          1.48089       -3.97260       -3.75762
N         -0.29069       -6.25061       -6.13744
C         -1.56143       -6.57128       -6.05443
S         -2.43829       -5.88846       -4.75242
C          0.96531       -3.90258        1.88285
C          2.08092       -5.04578       -0.02972
H          0.30628       -0.64400        0.61692
H          0.44126        1.02882        0.08888
H          1.90113        0.12830        0.48225
H          0.01043       -0.31954       -1.88948
H          1.61202        0.38794       -1.94088
H          2.03690       -1.62153       -2.77719
H          3.41743       -2.93966       -1.37411
H          3.51657       -1.30781       -0.75601
H          3.32157       -2.99414        0.94641
H         -0.39289       -2.59160        0.04535
H         -0.43209       -4.23028       -0.53528
H         -1.66779       -3.98169       -2.48968
H          2.12484       -5.05970       -5.51890
H          2.48147       -3.58144       -3.59964
H         -2.03577       -7.23187       -6.76825
H          0.19806       -4.68332        1.94092
H          1.78436       -4.19471        2.55093
H          0.52714       -2.97879        2.27914
H          2.45997       -4.99559       -1.05431
H          2.91801       -5.33739        0.61563
H          1.34429       -5.85683        0.00587

--Link1--
%chk=JID_9259.chk
%mem=8GB
%nprocshared=4
# B3LYP/6-311++G(d,p) empiricaldispersion=gd3bj scf=xqc pop=npa geom=check

CID_107806641_JID_9259_Energie_neutraal

0 1

--Link1--
%chk=JID_9259.chk
%mem=8GB
%nprocshared=4
# B3LYP/6-311++G(d,p) empiricaldispersion=gd3bj scf=xqc pop=npa geom=check

CID_107806641_JID_9259_Energie_kation

1 2

--Link1--
%chk=JID_9259.chk
%mem=8GB
%nprocshared=4
# B3LYP/6-311++G(d,p) empiricaldispersion=gd3bj scf=xqc pop=npa geom=check

CID_107806641_JID_9259_Energie_anion

-1 2
