%chk=JID_2595.chk
%mem=8GB
%nprocshared=4
# opt freq B3LYP/6-31G(d) empiricaldispersion=gd3bj scf=xqc

CID_14435554_JID_2595_neutraal

0 1
C          0.92170        0.05921       -0.01905
C          0.46823        1.39399        0.54966
N          0.97102        2.48233       -0.27792
C          0.64048        3.81915        0.22579
C          1.13106        4.20756        1.63555
O          2.51187        4.54901        1.70575
C          3.43906        3.47521        1.81010
C          3.37263        2.71876        3.14108
C          3.80017        3.61001        4.30171
C          5.15704        4.23769        4.00822
C          5.16358        4.89724        2.63561
O          4.77037        3.97413        1.61994
H          0.56446       -0.07739       -1.04539
H          0.52668       -0.76269        0.58681
H          2.01424       -0.01999       -0.02204
H         -0.62667        1.41987        0.57965
H          0.83882        1.46212        1.57595
H          1.97025        2.39780       -0.44897
H          1.04175        4.54306       -0.49317
H         -0.45084        3.92651        0.19843
H          0.59749        5.12604        1.90897
H          0.85044        3.47805        2.39850
H          3.28053        2.76982        0.99524
H          4.05901        1.86352        3.09288
H          2.37404        2.32036        3.33757
H          3.05359        4.39763        4.45833
H          3.84975        3.02342        5.22567
H          5.41685        4.96506        4.78417
H          5.91791        3.44748        4.02774
H          4.51214        5.77844        2.61422
H          6.17594        5.23909        2.39714

--Link1--
%chk=JID_2595.chk
%mem=8GB
%nprocshared=4
# B3LYP/6-311++G(d,p) empiricaldispersion=gd3bj scf=xqc pop=npa geom=check

CID_14435554_JID_2595_Energie_neutraal

0 1

--Link1--
%chk=JID_2595.chk
%mem=8GB
%nprocshared=4
# B3LYP/6-311++G(d,p) empiricaldispersion=gd3bj scf=xqc pop=npa geom=check

CID_14435554_JID_2595_Energie_kation

1 2

--Link1--
%chk=JID_2595.chk
%mem=8GB
%nprocshared=4
# B3LYP/6-311++G(d,p) empiricaldispersion=gd3bj scf=xqc pop=npa geom=check

CID_14435554_JID_2595_Energie_anion

-1 2
