%chk=JID_6025.chk
%mem=8GB
%nprocshared=4
# opt freq B3LYP/6-31G(d) empiricaldispersion=gd3bj scf=xqc

CID_103572120_JID_6025_neutraal

0 1
C          0.90125       -0.01523        0.00418
C          0.95719        1.49534       -0.18146
C          1.54402        1.91153       -1.52969
N          0.70500        1.54947       -2.65505
C          0.82276        0.43694       -3.43537
C         -0.20504        0.49191       -4.35836
C         -0.85692        1.71359       -4.05808
N         -0.31872        2.34456       -3.01202
C         -0.53655       -0.51410       -5.41612
C         -2.05326       -0.55044       -5.68828
O         -2.60759       -0.00009       -6.63546
O         -2.69789       -1.26031       -4.71579
C         -4.11740       -1.29391       -4.86437
N          0.21805       -0.12754       -6.62901
C          0.66342       -1.26184       -7.43361
C         -0.45429       -2.03616       -8.11625
H          0.19936       -0.48006       -0.69437
H          0.56601       -0.25569        1.01826
H          1.88776       -0.46650       -0.14171
H         -0.05028        1.91043       -0.05937
H          1.57840        1.92096        0.61536
H          1.67506        2.99949       -1.56378
H          2.52920        1.45762       -1.68602
H          1.60126       -0.29487       -3.27175
H         -1.70947        2.16341       -4.55234
H         -0.22604       -1.51120       -5.07780
H         -4.53075       -0.28070       -4.83777
H         -4.39222       -1.80176       -5.79397
H         -4.53268       -1.85819       -4.02482
H         -0.37814        0.48856       -7.18793
H          1.33100       -0.87061       -8.21000
H          1.27393       -1.94089       -6.82671
H         -1.08137       -1.37566       -8.72368
H         -0.02885       -2.79593       -8.78022
H         -1.08979       -2.55348       -7.39132

--Link1--
%chk=JID_6025.chk
%mem=8GB
%nprocshared=4
# B3LYP/6-311++G(d,p) empiricaldispersion=gd3bj scf=xqc pop=npa geom=check

CID_103572120_JID_6025_Energie_neutraal

0 1

--Link1--
%chk=JID_6025.chk
%mem=8GB
%nprocshared=4
# B3LYP/6-311++G(d,p) empiricaldispersion=gd3bj scf=xqc pop=npa geom=check

CID_103572120_JID_6025_Energie_kation

1 2

--Link1--
%chk=JID_6025.chk
%mem=8GB
%nprocshared=4
# B3LYP/6-311++G(d,p) empiricaldispersion=gd3bj scf=xqc pop=npa geom=check

CID_103572120_JID_6025_Energie_anion

-1 2
