%chk=JID_3724.chk
%mem=8GB
%nprocshared=4
# opt freq B3LYP/6-31G(d) empiricaldispersion=gd3bj scf=xqc

CID_146389140_JID_3724_neutraal

0 1
C         -1.09000        0.74600        0.20700
C         -1.23448       -0.72946       -0.06651
C          0.14163       -1.29210        0.27328
O          1.07431       -0.19441        0.13918
C          0.34701        0.99776       -0.18115
C          0.30405       -1.90503        1.67755
C         -0.48449       -3.19268        1.86995
N         -1.58078       -2.86110        2.79061
C         -1.28419       -1.66713        3.18600
O         -0.18398       -1.04082        2.70251
C         -2.09041       -0.93715        4.16748
C         -1.89793        0.53221        4.44066
O         -2.95387        0.06486        3.59484
H         -1.79597        1.36491       -0.35310
H         -1.23301        0.94992        1.27301
H         -1.42384       -0.87398       -1.13793
H         -2.06467       -1.19462        0.46977
H          0.42992       -2.04640       -0.46850
H          0.44217        1.16922       -1.25882
H          0.78373        1.84951        0.34747
H          1.36967       -2.07851        1.86898
H         -0.87247       -3.59956        0.93064
H          0.14385       -3.96405        2.32990
H         -2.50596       -1.54218        4.96419
H         -2.16971        0.90963        5.41835
H         -1.07259        1.05435        3.97295

--Link1--
%chk=JID_3724.chk
%mem=8GB
%nprocshared=4
# B3LYP/6-311++G(d,p) empiricaldispersion=gd3bj scf=xqc pop=npa geom=check

CID_146389140_JID_3724_Energie_neutraal

0 1

--Link1--
%chk=JID_3724.chk
%mem=8GB
%nprocshared=4
# B3LYP/6-311++G(d,p) empiricaldispersion=gd3bj scf=xqc pop=npa geom=check

CID_146389140_JID_3724_Energie_kation

1 2

--Link1--
%chk=JID_3724.chk
%mem=8GB
%nprocshared=4
# B3LYP/6-311++G(d,p) empiricaldispersion=gd3bj scf=xqc pop=npa geom=check

CID_146389140_JID_3724_Energie_anion

-1 2
