%chk=JID_9563.chk
%mem=8GB
%nprocshared=4
# opt freq B3LYP/6-31G(d) empiricaldispersion=gd3bj scf=xqc

CID_104118791_JID_9563_neutraal

0 1
C          1.03027        0.02186        0.09277
C          1.89274        1.27599        0.14258
C          1.56147        2.27629       -0.92036
C          1.11744        3.58418       -0.76867
N          0.99982        4.11454       -2.04781
N          1.30454        3.19712       -2.99684
C          1.67091        2.10488       -2.32692
C          2.11494        0.90666       -3.08320
C          0.64553        5.41816       -2.45341
N          0.55231        5.78511       -3.72549
C          0.21504        7.12170       -3.69913
C          0.10275        7.52406       -2.38942
O          0.36763        6.45910       -1.58650
C          0.00330        7.91700       -4.94420
N          1.19555        7.84707       -5.78894
C          1.09685        8.67302       -6.98950
C          1.61157       10.08413       -6.98223
C          2.35470        9.01906       -7.73591
C          0.81401        4.37632        0.45249
H         -0.03512        0.27272        0.13105
H          1.25887       -0.62612        0.94510
H          1.20816       -0.55576       -0.81887
H          1.78509        1.72881        1.13416
H          2.94813        0.99327        0.04887
H          1.28384        0.20396       -3.19913
H          2.47424        1.17658       -4.08176
H          2.93209        0.39734       -2.56311
H         -0.14023        8.45240       -1.89467
H         -0.86400        7.51427       -5.47962
H         -0.21454        8.95945       -4.68233
H          2.02530        8.04896       -5.23547
H          0.22922        8.46395       -7.61378
H          1.06641       10.82319       -7.55799
H          2.06612       10.47327       -6.07939
H          3.30324        8.67528       -7.34053
H          2.30819        9.02996       -8.81887
H          1.51226        5.21353        0.55310
H         -0.20746        4.76894        0.41832
H          0.89532        3.77044        1.35912

--Link1--
%chk=JID_9563.chk
%mem=8GB
%nprocshared=4
# B3LYP/6-311++G(d,p) empiricaldispersion=gd3bj scf=xqc pop=npa geom=check

CID_104118791_JID_9563_Energie_neutraal

0 1

--Link1--
%chk=JID_9563.chk
%mem=8GB
%nprocshared=4
# B3LYP/6-311++G(d,p) empiricaldispersion=gd3bj scf=xqc pop=npa geom=check

CID_104118791_JID_9563_Energie_kation

1 2

--Link1--
%chk=JID_9563.chk
%mem=8GB
%nprocshared=4
# B3LYP/6-311++G(d,p) empiricaldispersion=gd3bj scf=xqc pop=npa geom=check

CID_104118791_JID_9563_Energie_anion

-1 2
