%chk=JID_1143.chk
%mem=8GB
%nprocshared=4
# opt freq B3LYP/6-31G(d) empiricaldispersion=gd3bj scf=xqc

CID_72956251_JID_1143_neutraal

0 1
C         -2.34200        0.03500        0.53500
C         -1.48140        1.13381       -0.09431
C         -0.05417        0.71132       -0.08526
C          1.01235        1.32228        0.42168
C          2.12935        0.38672        0.27396
O          3.27050        0.60787        0.63386
O          1.68096       -0.76864       -0.29497
C          0.29985       -0.62475       -0.61552
C         -0.54524       -1.70033        0.05428
C         -2.03356       -1.35187       -0.04980
O         -2.80666       -2.33623        0.62773
H         -3.40530        0.26642        0.39803
H         -2.18288        0.01513        1.62179
H         -1.80002        1.30577       -1.12915
H         -1.62186        2.07380        0.45066
H          1.09533        2.27796        0.90633
H          0.18506       -0.66071       -1.70509
H         -0.25563       -1.82584        1.10692
H         -0.34792       -2.67787       -0.40307
H         -2.33815       -1.37405       -1.10286
H         -2.53851       -2.34796        1.56303

--Link1--
%chk=JID_1143.chk
%mem=8GB
%nprocshared=4
# B3LYP/6-311++G(d,p) empiricaldispersion=gd3bj scf=xqc pop=npa geom=check

CID_72956251_JID_1143_Energie_neutraal

0 1

--Link1--
%chk=JID_1143.chk
%mem=8GB
%nprocshared=4
# B3LYP/6-311++G(d,p) empiricaldispersion=gd3bj scf=xqc pop=npa geom=check

CID_72956251_JID_1143_Energie_kation

1 2

--Link1--
%chk=JID_1143.chk
%mem=8GB
%nprocshared=4
# B3LYP/6-311++G(d,p) empiricaldispersion=gd3bj scf=xqc pop=npa geom=check

CID_72956251_JID_1143_Energie_anion

-1 2
