%chk=JID_3344.chk
%mem=8GB
%nprocshared=4
# opt freq B3LYP/6-31G(d) empiricaldispersion=gd3bj scf=xqc

CID_130662257_JID_3344_neutraal

0 1
C          0.94757       -0.00490       -0.08501
C          0.39985       -1.31981        0.44057
C          0.53339       -2.48796       -0.54703
C          0.53610       -3.66218        0.41441
C          1.37001       -3.12042        1.55658
O          1.11796       -1.70943        1.62884
N         -0.53322       -2.54057       -1.54674
C         -0.29983       -3.51893       -2.61368
C         -0.59537       -3.16038       -4.05053
C         -1.45279       -4.16000       -3.35108
C         -2.86433       -3.64852       -3.34609
C         -2.77413       -2.16216       -3.70594
C         -1.45986       -2.00970       -4.47864
H          0.85430        0.77694        0.67624
H          0.41669        0.31766       -0.98543
H          2.01500       -0.08976       -0.31593
H         -0.64717       -1.18165        0.73983
H          1.51130       -2.42283       -1.04419
H          0.94945       -4.58232       -0.00814
H         -0.47959       -3.87700        0.77041
H          2.43971       -3.25893        1.36691
H          1.12231       -3.58738        2.51395
H         -1.42531       -2.71769       -1.08479
H          0.56756       -4.16407       -2.47108
H          0.09938       -3.48557       -4.81230
H         -1.37429       -5.20615       -3.61385
H         -3.35145       -3.80191       -2.37843
H         -3.44522       -4.18038       -4.10826
H         -2.74403       -1.55652       -2.79300
H         -3.63847       -1.82235       -4.28486
H         -0.98441       -1.04417       -4.28164
H         -1.65274       -2.08213       -5.55510

--Link1--
%chk=JID_3344.chk
%mem=8GB
%nprocshared=4
# B3LYP/6-311++G(d,p) empiricaldispersion=gd3bj scf=xqc pop=npa geom=check

CID_130662257_JID_3344_Energie_neutraal

0 1

--Link1--
%chk=JID_3344.chk
%mem=8GB
%nprocshared=4
# B3LYP/6-311++G(d,p) empiricaldispersion=gd3bj scf=xqc pop=npa geom=check

CID_130662257_JID_3344_Energie_kation

1 2

--Link1--
%chk=JID_3344.chk
%mem=8GB
%nprocshared=4
# B3LYP/6-311++G(d,p) empiricaldispersion=gd3bj scf=xqc pop=npa geom=check

CID_130662257_JID_3344_Energie_anion

-1 2
