%chk=JID_8714.chk
%mem=8GB
%nprocshared=4
# opt freq B3LYP/6-31G(d) empiricaldispersion=gd3bj scf=xqc

CID_14888766_JID_8714_neutraal

0 1
C          1.05464       -0.01233        0.08284
C          0.93327        1.40388        0.62238
C          1.22750        2.48307       -0.42226
C          0.31036        2.48478       -1.64984
C         -1.18726        2.61731       -1.35720
C         -1.59949        3.84597       -0.53725
C         -1.19998        5.21379       -1.13447
C         -1.78694        5.49777       -2.54152
C         -3.30649        5.59401       -2.61938
O         -1.21436        6.69122       -3.08846
N         -1.46992        6.30855       -0.19578
C         -2.58102        6.49566        0.58098
C         -2.35886        7.67401        1.26818
N         -1.12784        8.19735        0.91432
C         -0.61846        7.35180        0.04911
C         -3.22677        8.35148        2.22040
N         -2.90778        9.51333        2.67891
N         -4.35364        7.69924        2.60532
H          0.28871       -0.22248       -0.66934
H          0.92851       -0.73559        0.89492
H          2.03814       -0.17807       -0.36808
H         -0.06435        1.54685        1.05118
H          1.64422        1.52299        1.44903
H          1.18425        3.46313        0.06719
H          2.26243        2.36648       -0.76828
H          0.62378        3.29800       -2.31534
H          0.47045        1.56305       -2.22222
H         -1.72993        2.61608       -2.30985
H         -1.53084        1.72045       -0.82750
H         -2.68637        3.80019       -0.39695
H         -1.17469        3.75793        0.47106
H         -0.10619        5.22430       -1.23635
H         -1.46865        4.69588       -3.21586
H         -3.68710        6.45612       -2.06322
H         -3.61652        5.74608       -3.65953
H         -3.79288        4.68762       -2.24977
H         -1.65068        7.46017       -2.67610
H         -3.42411        5.82019        0.57329
H          0.34477        7.45150       -0.43658
H         -2.00992        9.76831        2.23244
H         -4.24393        6.70279        2.73952
H         -4.75574        8.15295        3.41907

--Link1--
%chk=JID_8714.chk
%mem=8GB
%nprocshared=4
# B3LYP/6-311++G(d,p) empiricaldispersion=gd3bj scf=xqc pop=npa geom=check

CID_14888766_JID_8714_Energie_neutraal

0 1

--Link1--
%chk=JID_8714.chk
%mem=8GB
%nprocshared=4
# B3LYP/6-311++G(d,p) empiricaldispersion=gd3bj scf=xqc pop=npa geom=check

CID_14888766_JID_8714_Energie_kation

1 2

--Link1--
%chk=JID_8714.chk
%mem=8GB
%nprocshared=4
# B3LYP/6-311++G(d,p) empiricaldispersion=gd3bj scf=xqc pop=npa geom=check

CID_14888766_JID_8714_Energie_anion

-1 2
