%chk=JID_9403.chk
%mem=8GB
%nprocshared=4
# opt freq B3LYP/6-31G(d) empiricaldispersion=gd3bj scf=xqc

CID_103176293_JID_9403_neutraal

0 1
C          1.05624       -0.06586       -0.05000
C          0.19388       -1.31752       -0.10736
C          0.99664       -2.56915        0.13747
C          1.36281       -3.44652       -0.88488
C          2.01183       -4.63461       -0.55212
C          2.33314       -4.89102        0.77624
C          1.97886       -3.95485        1.74020
N          1.31744       -2.81218        1.43846
C          2.30725       -4.19655        3.18285
O          1.04095       -3.25052       -2.20449
C          1.74229       -2.25316       -2.85202
C          3.12924       -2.20993       -2.84771
C          3.75014       -1.18298       -3.54402
C          2.96520       -0.25529       -4.22304
C          1.57743       -0.38234       -4.20603
N          0.97004       -1.37530       -3.52933
N          0.81964        0.59496       -4.87681
C         -0.62254        0.37252       -4.83284
C         -1.32650        1.51324       -5.55141
H          0.44514        0.82243       -0.23880
H          1.85760       -0.09082       -0.79402
H          1.52193        0.04853        0.93487
H         -0.34221       -1.36836       -1.06021
H         -0.58302       -1.25045        0.66467
H          2.26625       -5.35448       -1.32443
H          2.84549       -5.80702        1.05115
H          1.98905       -3.35152        3.80191
H          1.79469       -5.09460        3.54127
H          3.38692       -4.32317        3.30957
H          3.71888       -2.94699       -2.31670
H          4.83254       -1.09748       -3.55324
H          3.43318        0.56878       -4.75164
H          1.16510        0.68133       -5.82818
H         -0.88353       -0.57349       -5.32242
H         -0.97886        0.34223       -3.79595
H         -1.01535        1.56933       -6.59996
H         -2.41108        1.37003       -5.52327
H         -1.09481        2.47501       -5.08148

--Link1--
%chk=JID_9403.chk
%mem=8GB
%nprocshared=4
# B3LYP/6-311++G(d,p) empiricaldispersion=gd3bj scf=xqc pop=npa geom=check

CID_103176293_JID_9403_Energie_neutraal

0 1

--Link1--
%chk=JID_9403.chk
%mem=8GB
%nprocshared=4
# B3LYP/6-311++G(d,p) empiricaldispersion=gd3bj scf=xqc pop=npa geom=check

CID_103176293_JID_9403_Energie_kation

1 2

--Link1--
%chk=JID_9403.chk
%mem=8GB
%nprocshared=4
# B3LYP/6-311++G(d,p) empiricaldispersion=gd3bj scf=xqc pop=npa geom=check

CID_103176293_JID_9403_Energie_anion

-1 2
