%chk=JID_9358.chk
%mem=8GB
%nprocshared=4
# opt freq B3LYP/6-31G(d) empiricaldispersion=gd3bj scf=xqc

CID_63986248_JID_9358_neutraal

0 1
C          2.49200        0.00400       -0.01400
C          1.02320        0.05427        0.28147
C          0.21852       -1.07069        0.05393
C         -1.16111       -1.03621        0.30774
C         -1.71387        0.12955        0.86076
C         -0.91501        1.24388        1.11615
C          0.44785        1.20645        0.82713
C         -2.04475       -2.24339        0.07378
N         -1.72537       -3.06818       -1.10005
C         -2.19535       -4.43905       -0.90342
C         -2.12027       -2.54807       -2.44453
C         -3.63851       -2.56286       -2.85066
N         -4.60681       -1.93239       -1.94203
C         -1.40372       -1.26894       -2.89040
N         -0.21809       -1.42946       -3.53410
C          0.41580       -0.31111       -3.91875
N         -0.01788        0.94479       -3.75032
C         -1.19533        1.06138       -3.11159
C         -1.93757       -0.01152       -2.66955
H          3.03532       -0.38399        0.85299
H          2.69395       -0.63932       -0.87699
H          2.87743        1.00005       -0.25596
H          0.66196       -1.97571       -0.35920
H         -2.77540        0.17697        1.09207
H         -1.35445        2.14238        1.54041
H          1.05978        2.08270        1.02667
H         -1.91188       -2.84897        0.98214
H         -3.09479       -1.94440        0.08174
H         -3.28135       -4.49316       -0.77282
H         -1.91510       -5.07871       -1.74791
H         -1.72468       -4.88395       -0.01915
H         -1.69033       -3.29005       -3.13745
H         -3.74885       -2.09493       -3.83704
H         -3.95295       -3.60623       -2.97897
H         -5.52531       -1.93951       -2.38697
H         -4.70581       -2.51906       -1.11425
H          1.36920       -0.43789       -4.41906
H         -1.53901        2.07888       -2.95324
H         -2.87459        0.13778       -2.15061

--Link1--
%chk=JID_9358.chk
%mem=8GB
%nprocshared=4
# B3LYP/6-311++G(d,p) empiricaldispersion=gd3bj scf=xqc pop=npa geom=check

CID_63986248_JID_9358_Energie_neutraal

0 1

--Link1--
%chk=JID_9358.chk
%mem=8GB
%nprocshared=4
# B3LYP/6-311++G(d,p) empiricaldispersion=gd3bj scf=xqc pop=npa geom=check

CID_63986248_JID_9358_Energie_kation

1 2

--Link1--
%chk=JID_9358.chk
%mem=8GB
%nprocshared=4
# B3LYP/6-311++G(d,p) empiricaldispersion=gd3bj scf=xqc pop=npa geom=check

CID_63986248_JID_9358_Energie_anion

-1 2
