%chk=JID_3763.chk
%mem=8GB
%nprocshared=4
# opt freq B3LYP/6-31G(d) empiricaldispersion=gd3bj scf=xqc

CID_131245319_JID_3763_neutraal

0 1
C          0.93577        0.01301       -0.07553
C          0.13396        1.31081        0.04257
C          1.05234        2.46003        0.47032
C          0.37850        3.81388        0.72824
N          0.08833        4.51516       -0.51904
C         -1.25577        4.31442       -1.07047
C         -1.85530        2.90089       -1.03090
S         -0.71710        1.58428       -1.55241
C          0.50128        5.92174       -0.51245
C         -0.19842        6.78834        0.50040
C          0.42071        7.39186        1.52953
C         -0.25971        8.26293        2.53262
N         -0.07938        7.69585        3.85928
H          0.28986       -0.83635       -0.32572
H          1.42263       -0.22347        0.87740
H          1.72089        0.08611       -0.83688
H         -0.63285        1.15532        0.81049
H          1.54103        2.16304        1.40886
H          1.86871        2.58536       -0.25460
H          1.10080        4.38935        1.32272
H         -0.50867        3.70992        1.36471
H         -1.23706        4.63483       -2.12081
H         -1.97914        4.96777       -0.56752
H         -2.71888        2.87110       -1.70471
H         -2.23893        2.67143       -0.03086
H          1.58848        5.96598       -0.36458
H          0.33845        6.35542       -1.50760
H         -1.26489        6.93852        0.35932
H          1.49181        7.25521        1.66739
H          0.18584        9.26257        2.50054
H         -1.32871        8.36951        2.31860
H         -0.54603        8.29197        4.54028
H         -0.55777        6.79703        3.89788

--Link1--
%chk=JID_3763.chk
%mem=8GB
%nprocshared=4
# B3LYP/6-311++G(d,p) empiricaldispersion=gd3bj scf=xqc pop=npa geom=check

CID_131245319_JID_3763_Energie_neutraal

0 1

--Link1--
%chk=JID_3763.chk
%mem=8GB
%nprocshared=4
# B3LYP/6-311++G(d,p) empiricaldispersion=gd3bj scf=xqc pop=npa geom=check

CID_131245319_JID_3763_Energie_kation

1 2

--Link1--
%chk=JID_3763.chk
%mem=8GB
%nprocshared=4
# B3LYP/6-311++G(d,p) empiricaldispersion=gd3bj scf=xqc pop=npa geom=check

CID_131245319_JID_3763_Energie_anion

-1 2
