%chk=JID_8642.chk
%mem=8GB
%nprocshared=4
# opt freq B3LYP/6-31G(d) empiricaldispersion=gd3bj scf=xqc

CID_113245947_JID_8642_neutraal

0 1
C          1.04038        0.04796       -0.07790
C          0.16042        0.11021        1.17485
C          0.18389        1.50956        1.81732
C         -0.29025        2.64191        0.90782
O         -0.44018        3.85690        1.64127
C         -1.72104        3.97615        2.25070
C         -1.29366       -0.33703        0.86459
N         -1.38622       -1.76415        0.57013
C         -1.90420       -2.76816        1.33496
O         -1.74232       -3.92911        0.95045
C         -2.56134       -2.47060        2.68416
N         -1.58134       -2.39345        3.75615
C         -0.75456       -3.53356        4.05563
S          0.21482       -3.12007        5.50902
C         -0.19889       -1.36155        5.43373
C         -1.32905       -1.21981        4.43983
O         -1.94507       -0.17337        4.26216
O          0.73140       -0.79504        2.13565
H          0.63849        0.65651       -0.89372
H          1.14301       -0.98135       -0.43954
H          2.05614        0.39363        0.14600
H         -0.40433        1.49083        2.74238
H          1.20015        1.74007        2.16680
H          0.46949        2.83245        0.14246
H         -1.22270        2.40280        0.38651
H         -2.50177        4.00969        1.48421
H         -1.91146        3.15027        2.94132
H         -1.74839        4.91337        2.81264
H         -1.94846       -0.09900        1.70279
H         -1.68295        0.18800       -0.01396
H         -0.99398       -2.09487       -0.30461
H         -3.16444       -1.56111        2.62454
H         -3.25202       -3.28942        2.91646
H         -0.08827       -3.73654        3.21290
H         -1.38602       -4.40519        4.24885
H         -0.52346       -1.01413        6.41727
H          0.66406       -0.78502        5.09179
H          0.63088       -1.69142        1.76651

--Link1--
%chk=JID_8642.chk
%mem=8GB
%nprocshared=4
# B3LYP/6-311++G(d,p) empiricaldispersion=gd3bj scf=xqc pop=npa geom=check

CID_113245947_JID_8642_Energie_neutraal

0 1

--Link1--
%chk=JID_8642.chk
%mem=8GB
%nprocshared=4
# B3LYP/6-311++G(d,p) empiricaldispersion=gd3bj scf=xqc pop=npa geom=check

CID_113245947_JID_8642_Energie_kation

1 2

--Link1--
%chk=JID_8642.chk
%mem=8GB
%nprocshared=4
# B3LYP/6-311++G(d,p) empiricaldispersion=gd3bj scf=xqc pop=npa geom=check

CID_113245947_JID_8642_Energie_anion

-1 2
