%chk=JID_10442.chk
%mem=8GB
%nprocshared=4
# opt freq B3LYP/6-31G(d) empiricaldispersion=gd3bj scf=xqc

CID_119488855_JID_10442_neutraal

0 1
C          0.99317       -0.07180        0.06926
C          0.33954        1.17124       -0.53789
C          0.82975        1.38562       -1.96716
N         -1.11497        1.00853       -0.56228
C         -1.82439        1.68202        0.42961
C         -1.91319        3.07073        0.56096
C         -2.72035        3.61312        1.57026
C         -3.38208        2.76218        2.44493
C         -3.22659        1.40080        2.26111
N         -2.47140        0.85200        1.28219
C         -1.30592        4.00338       -0.40564
O         -1.84059        4.11109       -1.50680
N         -0.20490        4.78035       -0.00699
C          0.13641        5.91011       -0.87181
C          1.60647        6.30495       -0.79620
C          2.07276        6.45862        0.64962
C          1.78306        5.19950        1.48230
C          0.27765        4.85716        1.38036
N          2.65376        4.11155        0.99865
C          2.80875        3.03821        1.96904
H          0.75231       -0.97286       -0.50563
H          0.64722       -0.23067        1.09631
H          2.08268        0.03516        0.09313
H          0.64181        2.03586        0.05933
H          0.57011        0.53753       -2.61056
H          0.37777        2.28237       -2.40450
H          1.91738        1.51159       -1.99059
H         -1.37899        0.03179       -0.43104
H         -2.84966        4.68875        1.65191
H         -4.01847        3.14770        3.23345
H         -3.72925        0.68740        2.90861
H         -0.49483        6.75120       -0.55880
H         -0.12004        5.68720       -1.91325
H          1.76219        7.24549       -1.33691
H          2.21448        5.54776       -1.30537
H          3.14394        6.69464        0.66928
H          1.55780        7.31522        1.10365
H          2.03161        5.42474        2.52702
H          0.07196        3.92313        1.90932
H         -0.31063        5.64004        1.87568
H          2.26347        3.74023        0.13076
H          1.85875        2.55103        2.20568
H          3.47901        2.27594        1.55966
H          3.26109        3.40666        2.89533

--Link1--
%chk=JID_10442.chk
%mem=8GB
%nprocshared=4
# B3LYP/6-311++G(d,p) empiricaldispersion=gd3bj scf=xqc pop=npa geom=check

CID_119488855_JID_10442_Energie_neutraal

0 1

--Link1--
%chk=JID_10442.chk
%mem=8GB
%nprocshared=4
# B3LYP/6-311++G(d,p) empiricaldispersion=gd3bj scf=xqc pop=npa geom=check

CID_119488855_JID_10442_Energie_kation

1 2

--Link1--
%chk=JID_10442.chk
%mem=8GB
%nprocshared=4
# B3LYP/6-311++G(d,p) empiricaldispersion=gd3bj scf=xqc pop=npa geom=check

CID_119488855_JID_10442_Energie_anion

-1 2
