%chk=JID_3887.chk
%mem=8GB
%nprocshared=4
# opt=(cartesian,calcfc) freq B3LYP/6-31G(d) empiricaldispersion=gd3bj scf=xqc

CID_81180618_JID_3887_neutraal

0 1
6	-4.316192	 0.468169	 0.481515
6	-2.879711	 0.099493	 0.202677
6	-1.995826	 1.037447	 -0.319767
6	-0.647769	 0.732365	 -0.595852
6	-0.215535	 -0.584289	 -0.327169
6	-1.107459	 -1.539291	 0.168741
6	-2.424997	 -1.206866	 0.450079
16	1.463868	 -1.144546	 -0.644155
8	2.134247	 -0.213122	 -1.659620
6	2.171778	 -0.774382	 1.059795
8	1.914847	 0.476934	 1.584871
6	2.789083	 1.509088	 1.128964
7	0.211662	 1.699535	 -1.080444
1	-4.495408	 1.536736	 0.325943
1	-5.000335	 -0.086457	 -0.173777
1	-4.592409	 0.224846	 1.514866
1	-2.344392	 2.048785	 -0.519118
1	-0.755887	 -2.555394	 0.333816
1	-3.105654	 -1.954980	 0.845572
1	1.700175	 -1.523245	 1.705857
1	3.247512	 -0.985771	 0.956658
1	3.839832	 1.230659	 1.304601
1	2.638888	 1.722084	 0.068289
1	2.543325	 2.394379	 1.720363
1	-0.238912	 2.478298	 -1.542491
1	1.026775	 1.325153	 -1.566918

--Link1--
%chk=JID_3887.chk
%mem=8GB
%nprocshared=4
# B3LYP/6-311++G(d,p) empiricaldispersion=gd3bj scf=xqc pop=npa geom=check

CID_81180618_JID_3887_Energie_neutraal

0 1

--Link1--
%chk=JID_3887.chk
%mem=8GB
%nprocshared=4
# B3LYP/6-311++G(d,p) empiricaldispersion=gd3bj scf=xqc pop=npa geom=check

CID_81180618_JID_3887_Energie_kation

1 2

--Link1--
%chk=JID_3887.chk
%mem=8GB
%nprocshared=4
# B3LYP/6-311++G(d,p) empiricaldispersion=gd3bj scf=xqc pop=npa geom=check

CID_81180618_JID_3887_Energie_anion

-1 2
