%chk=JID_5330.chk
%mem=8GB
%nprocshared=4
# opt freq B3LYP/6-31G(d) empiricaldispersion=gd3bj scf=xqc

CID_61463319_JID_5330_neutraal

0 1
C          0.92308        0.05214        0.03695
C          0.33183       -1.34405       -0.11264
C          0.98222       -2.40500        0.80460
C          0.88638       -1.97543        2.28119
C          0.36747       -3.83306        0.60763
C          0.32624       -4.26214       -0.86263
N          1.15026       -4.77081        1.42329
C          0.65855       -6.15108        1.49889
C          1.33616       -7.19065        0.56929
C          2.81664       -7.25026        0.74727
C          3.87919       -6.81317       -0.01708
C          5.05159       -7.14826        0.70132
C          4.63193       -7.77402        1.85159
O          3.27641       -7.84448        1.88873
O          0.82392       -8.49570        0.85474
H          0.66156        0.50053        0.99968
H          0.52874        0.71004       -0.74464
H          2.01330        0.03156       -0.05710
H         -0.74871       -1.30116        0.06872
H          0.47224       -1.62795       -1.16071
H          2.04897       -2.45207        0.54239
H         -0.15803       -1.83816        2.58147
H          1.33634       -2.71346        2.95242
H          1.41920       -1.03648        2.45916
H         -0.66257       -3.81045        0.98694
H          1.32968       -4.29430       -1.29994
H         -0.13577       -5.24658       -0.97903
H         -0.29015       -3.58605       -1.46207
H          2.13811       -4.74680        1.17368
H          0.81228       -6.48063        2.53540
H         -0.43010       -6.19267        1.36406
H          1.10290       -6.98143       -0.47791
H          3.81295       -6.31134       -0.97270
H          6.07721       -6.95973        0.41665
H          5.14594       -8.20462        2.69974
H          1.31451       -8.80746        1.63870

--Link1--
%chk=JID_5330.chk
%mem=8GB
%nprocshared=4
# B3LYP/6-311++G(d,p) empiricaldispersion=gd3bj scf=xqc pop=npa geom=check

CID_61463319_JID_5330_Energie_neutraal

0 1

--Link1--
%chk=JID_5330.chk
%mem=8GB
%nprocshared=4
# B3LYP/6-311++G(d,p) empiricaldispersion=gd3bj scf=xqc pop=npa geom=check

CID_61463319_JID_5330_Energie_kation

1 2

--Link1--
%chk=JID_5330.chk
%mem=8GB
%nprocshared=4
# B3LYP/6-311++G(d,p) empiricaldispersion=gd3bj scf=xqc pop=npa geom=check

CID_61463319_JID_5330_Energie_anion

-1 2
