%chk=JID_8606.chk
%mem=8GB
%nprocshared=4
# opt freq B3LYP/6-31G(d) empiricaldispersion=gd3bj scf=xqc

CID_152675877_JID_8606_neutraal

0 1
C          0.93817       -0.07648        0.01812
C          0.46991       -1.51581        0.23961
C          0.70616       -1.92534        1.71796
N          0.00827       -1.01507        2.64046
N          0.70421       -0.52563        3.54830
N          1.34270       -0.07000        4.37461
C         -1.01152       -1.76628       -0.16564
C         -1.53519       -1.06927       -1.44055
O         -1.58323       -1.91121       -2.59726
C         -0.35964       -2.04801       -3.32300
C          0.19385       -0.75790       -3.87632
C          1.56625       -0.48519       -3.77857
C          2.09093        0.70517       -4.28354
C          1.25149        1.62992       -4.90096
C         -0.11107        1.36158       -5.02173
C         -0.63685        0.16991       -4.51966
O         -1.21631       -3.19196       -0.27005
O          1.31714       -2.36878       -0.55278
H          0.26721        0.64931        0.48825
H          1.02341        0.16399       -1.04391
H          1.94395        0.06968        0.42994
H          0.35324       -2.94921        1.89161
H          1.78678       -1.95134        1.91990
H         -1.64657       -1.41064        0.65500
H         -2.59076       -0.83750       -1.24783
H         -1.07603       -0.09929       -1.64181
H          0.37114       -2.57413       -2.70851
H         -0.56905       -2.70986       -4.17160
H          2.23343       -1.19310       -3.28920
H          3.15419        0.91105       -4.19116
H          1.65995        2.55872       -5.29029
H         -0.76515        2.08135       -5.50671
H         -1.70186       -0.03007       -4.61822
H         -1.77179       -3.32440       -1.06586
H          0.86594       -3.23930       -0.54105

--Link1--
%chk=JID_8606.chk
%mem=8GB
%nprocshared=4
# B3LYP/6-311++G(d,p) empiricaldispersion=gd3bj scf=xqc pop=npa geom=check

CID_152675877_JID_8606_Energie_neutraal

0 1

--Link1--
%chk=JID_8606.chk
%mem=8GB
%nprocshared=4
# B3LYP/6-311++G(d,p) empiricaldispersion=gd3bj scf=xqc pop=npa geom=check

CID_152675877_JID_8606_Energie_kation

1 2

--Link1--
%chk=JID_8606.chk
%mem=8GB
%nprocshared=4
# B3LYP/6-311++G(d,p) empiricaldispersion=gd3bj scf=xqc pop=npa geom=check

CID_152675877_JID_8606_Energie_anion

-1 2
