%chk=JID_4094.chk
%mem=8GB
%nprocshared=4
# opt freq B3LYP/6-31G(d) empiricaldispersion=gd3bj scf=xqc

CID_153844207_JID_4094_neutraal

0 1
C          1.06300        0.07042        0.03275
C          0.31846       -1.20183       -0.36738
C          0.40379       -2.32865        0.69009
C         -0.20419       -1.91798        2.03452
N          0.05363       -3.68996        0.16141
C          1.01260       -4.64923        0.73091
C         -1.38068       -4.18957        0.06084
C         -1.99345       -4.41891        1.48186
C         -2.30893       -3.09345       -0.59104
C         -2.04365       -2.68690       -2.03742
C         -1.54091       -5.61921       -0.76048
C         -0.66797       -5.68124       -2.03876
C         -1.21958       -6.87944        0.10076
C         -3.00773       -5.87736       -1.22763
H          0.59457        0.55601        0.89365
H          1.04996        0.78602       -0.79596
H          2.10838       -0.14236        0.27706
H         -0.71416       -0.91369       -0.56852
H          0.75905       -1.55706       -1.30667
H          1.48336       -2.35212        0.89754
H         -1.23685       -1.57509        1.93519
H         -0.15575       -2.73497        2.76128
H          0.36336       -1.09222        2.47804
H          0.77661       -4.92362        1.76255
H          1.11649       -5.54455        0.12236
H          2.03592       -4.25229        0.73066
H         -2.19265       -3.48807        2.01463
H         -2.96710       -4.91623        1.42196
H         -1.35973       -5.03860        2.12200
H         -3.35980       -3.40347       -0.51993
H         -2.28509       -2.18914        0.02558
H         -2.52404       -3.36364       -2.74715
H         -2.47113       -1.69580       -2.22562
H         -0.98036       -2.64561       -2.27833
H          0.39662       -5.55002       -1.83857
H         -0.77368       -6.65497       -2.53332
H         -0.95498       -4.93291       -2.77845
H         -1.95767       -7.01913        0.89856
H         -1.25891       -7.78839       -0.51319
H         -0.23990       -6.87512        0.57140
H         -3.71833       -5.83434       -0.39700
H         -3.34056       -5.17527       -1.99398
H         -3.10477       -6.87471       -1.67562

--Link1--
%chk=JID_4094.chk
%mem=8GB
%nprocshared=4
# B3LYP/6-311++G(d,p) empiricaldispersion=gd3bj scf=xqc pop=npa geom=check

CID_153844207_JID_4094_Energie_neutraal

0 1

--Link1--
%chk=JID_4094.chk
%mem=8GB
%nprocshared=4
# B3LYP/6-311++G(d,p) empiricaldispersion=gd3bj scf=xqc pop=npa geom=check

CID_153844207_JID_4094_Energie_kation

1 2

--Link1--
%chk=JID_4094.chk
%mem=8GB
%nprocshared=4
# B3LYP/6-311++G(d,p) empiricaldispersion=gd3bj scf=xqc pop=npa geom=check

CID_153844207_JID_4094_Energie_anion

-1 2
