%chk=JID_9962.chk
%mem=8GB
%nprocshared=4
# opt freq B3LYP/6-31G(d) empiricaldispersion=gd3bj scf=xqc

CID_136252158_JID_9962_neutraal

0 1
C          1.03109        0.07778        0.05463
C          0.66212        1.44571        0.61046
C          1.07833        2.58936       -0.31425
C          0.32315        2.64007       -1.63870
C          0.62975        4.03842       -2.16454
C          0.78305        4.92745       -0.92019
C          0.77806        3.96586        0.27999
C         -0.28050        6.00132       -0.75251
N         -1.32684        6.06430       -1.50699
C         -2.23155        7.07666       -1.28026
C         -2.10904        7.99575       -0.30409
C         -3.07790        9.11360       -0.04547
C         -3.19149       10.09314       -1.21485
C         -4.03504        9.57545       -2.37912
C         -3.46380        8.35648       -3.10248
C         -3.40023        7.09388       -2.24085
C         -0.91141        7.89572        0.56382
O         -0.68888        8.66843        1.48910
N         -0.05281        6.88203        0.26647
H          0.49776       -0.13039       -0.87780
H          0.76635       -0.70439        0.77326
H          2.10621        0.00980       -0.13938
H         -0.41840        1.47833        0.79510
H          1.15335        1.57248        1.58283
H          2.15624        2.51915       -0.51529
H          0.64915        1.86599       -2.33982
H         -0.75621        2.52674       -1.48012
H         -0.12796        4.37076       -2.87933
H          1.58539        4.01523       -2.70381
H          1.75294        5.44008       -0.97180
H         -0.19753        3.96757        0.78308
H          1.52911        4.25107        1.02486
H         -2.77317        9.68617        0.83825
H         -4.06262        8.69891        0.20431
H         -2.19506       10.38130       -1.57264
H         -3.66523       11.01124       -0.84453
H         -5.04835        9.34911       -2.02461
H         -4.14013       10.38696       -3.11014
H         -4.11241        8.14810       -3.96285
H         -2.47339        8.59329       -3.51091
H         -3.31759        6.23184       -2.91650
H         -4.33902        6.94907       -1.69180
H          0.76571        6.81174        0.85151

--Link1--
%chk=JID_9962.chk
%mem=8GB
%nprocshared=4
# B3LYP/6-311++G(d,p) empiricaldispersion=gd3bj scf=xqc pop=npa geom=check

CID_136252158_JID_9962_Energie_neutraal

0 1

--Link1--
%chk=JID_9962.chk
%mem=8GB
%nprocshared=4
# B3LYP/6-311++G(d,p) empiricaldispersion=gd3bj scf=xqc pop=npa geom=check

CID_136252158_JID_9962_Energie_kation

1 2

--Link1--
%chk=JID_9962.chk
%mem=8GB
%nprocshared=4
# B3LYP/6-311++G(d,p) empiricaldispersion=gd3bj scf=xqc pop=npa geom=check

CID_136252158_JID_9962_Energie_anion

-1 2
