%chk=JID_7179.chk
%mem=8GB
%nprocshared=4
# opt freq B3LYP/6-31G(d) empiricaldispersion=gd3bj scf=xqc

CID_61739172_JID_7179_neutraal

0 1
C          1.00661        0.09126        0.04035
C          0.81914       -1.44743       -0.65674
C          1.70612       -3.37681       -0.52058
C          1.07805       -5.00999       -0.95012
C          1.32348       -5.60796       -2.36947
C          2.24104       -4.81942       -3.31622
C          2.75845       -3.53742       -2.64804
C          3.10652       -3.80377       -1.21855
N          1.82796       -2.39698       -2.46162
C          2.82874       -1.47169       -1.20631
C          2.52141       -1.73665        0.69052
C          0.78322       -2.37368        1.29048
C         -0.40378       -3.12264       -0.02646
C          0.12508       -2.96199       -1.92217
C          0.89888       -3.28400        2.52609
N          1.68800       -4.50384       -4.64031
C          1.21009       -5.64293       -5.39715
H          0.28097        0.74168       -0.47247
H          1.96762        0.58981       -0.11081
H          0.73907        0.16893        1.09568
H         -0.27276       -1.34240       -0.52288
H          0.78523       -0.99051       -1.67687
H          1.95373       -3.70353        0.49037
H          1.60752       -5.67267       -0.24273
H          0.04331       -5.25377       -0.72112
H          0.34525       -5.79581       -2.82797
H          1.74017       -6.61757       -2.24467
H          3.12439       -5.45009       -3.49282
H          3.63937       -3.18770       -3.20103
H          4.00534       -3.32456       -0.81999
H          3.37783       -4.85520       -1.04540
H          2.70205       -0.42702       -1.52270
H          3.89851       -1.58810       -1.43937
H          2.76841       -0.81761        1.23854
H          3.28324       -2.44565        1.05551
H          0.22289       -1.51841        1.68416
H         -0.66837       -4.11597        0.33736
H         -1.37893       -2.60791        0.07289
H         -0.54146       -2.19374       -2.36194
H         -0.18955       -3.82038       -2.51544
H          1.52925       -2.80837        3.28370
H         -0.09291       -3.44597        2.96112
H          1.31805       -4.26839        2.30239
H          0.98087       -3.77386       -4.54922
H          0.29521       -6.07038       -4.97828
H          0.98059       -5.32516       -6.41922
H          1.97251       -6.42565       -5.46465

--Link1--
%chk=JID_7179.chk
%mem=8GB
%nprocshared=4
# B3LYP/6-311++G(d,p) empiricaldispersion=gd3bj scf=xqc pop=npa geom=check

CID_61739172_JID_7179_Energie_neutraal

0 1

--Link1--
%chk=JID_7179.chk
%mem=8GB
%nprocshared=4
# B3LYP/6-311++G(d,p) empiricaldispersion=gd3bj scf=xqc pop=npa geom=check

CID_61739172_JID_7179_Energie_kation

1 2

--Link1--
%chk=JID_7179.chk
%mem=8GB
%nprocshared=4
# B3LYP/6-311++G(d,p) empiricaldispersion=gd3bj scf=xqc pop=npa geom=check

CID_61739172_JID_7179_Energie_anion

-1 2
