%chk=JID_2508.chk
%mem=8GB
%nprocshared=4
# opt freq B3LYP/6-31G(d) empiricaldispersion=gd3bj scf=xqc

CID_131143323_JID_2508_neutraal

0 1
C          0.97531        0.08220       -0.05132
C         -0.31260        0.82321       -0.13431
C         -0.28592        2.32000       -0.06997
C         -0.77439        1.63447       -1.33114
C         -0.06650        1.79851       -2.70262
C          0.87438        0.73303       -3.28302
C         -0.51800        0.86739       -3.86767
C         -1.48300       -0.26236       -3.56310
C         -0.72942        1.42016       -5.25838
C          2.11529        1.04458       -4.05565
N          3.19566        1.26408       -3.10441
C          0.19985        3.25936       -3.01525
H          0.87756       -0.90455       -0.51346
H          1.24806       -0.06930        0.99835
H          1.79952        0.61786       -0.53031
H         -1.08596        0.30893        0.42779
H         -1.02190        2.81631        0.55236
H          0.67853        2.81413       -0.08396
H         -1.86273        1.67239       -1.44309
H          1.04407       -0.17185       -2.70726
H         -2.51171        0.11240       -3.55064
H         -1.40974       -1.04122       -4.32970
H         -1.28313       -0.73845       -2.59772
H          0.01503        2.15521       -5.56855
H         -0.69851        0.60888       -5.99411
H         -1.71316        1.89738       -5.32245
H          2.36696        0.19220       -4.69534
H          2.02257        1.91976       -4.70184
H          4.03237        1.54828       -3.60972
H          2.94646        2.04538       -2.49952
H         -0.73496        3.82792       -2.96007
H          0.89868        3.68156       -2.28595
H          0.63112        3.44032       -4.00097

--Link1--
%chk=JID_2508.chk
%mem=8GB
%nprocshared=4
# B3LYP/6-311++G(d,p) empiricaldispersion=gd3bj scf=xqc pop=npa geom=check

CID_131143323_JID_2508_Energie_neutraal

0 1

--Link1--
%chk=JID_2508.chk
%mem=8GB
%nprocshared=4
# B3LYP/6-311++G(d,p) empiricaldispersion=gd3bj scf=xqc pop=npa geom=check

CID_131143323_JID_2508_Energie_kation

1 2

--Link1--
%chk=JID_2508.chk
%mem=8GB
%nprocshared=4
# B3LYP/6-311++G(d,p) empiricaldispersion=gd3bj scf=xqc pop=npa geom=check

CID_131143323_JID_2508_Energie_anion

-1 2
