%chk=JID_3111.chk
%mem=8GB
%nprocshared=4
# opt freq B3LYP/6-31G(d) empiricaldispersion=gd3bj scf=xqc

CID_61480769_JID_3111_neutraal

0 1
C          1.02836       -0.05596       -0.07788
C          0.49319       -0.36304        1.31865
C          0.72945        0.77944        2.32450
C          0.35271        2.20388        1.88436
N         -1.04661        2.31609        1.47993
C         -1.52923        3.70179        1.35959
C         -0.97244        4.30780        0.09710
C         -1.55957        4.13776       -1.28025
C         -1.56773        5.49414       -0.61612
C         -3.01321        3.61361        1.65457
C         -4.19290        4.07832        0.82459
C         -3.91789        2.61129        0.96033
N         -0.92498       -0.72908        1.23181
H          0.47852        0.75345       -0.56867
H          0.95391       -0.93943       -0.72228
H          2.08449        0.23040       -0.03143
H          1.02880       -1.24632        1.68851
H          0.20759        0.54510        3.26262
H          1.79819        0.78906        2.57795
H          0.55139        2.86682        2.73545
H          1.01780        2.51749        1.07269
H         -1.17425        1.87632        0.56764
H         -1.11678        4.29820        2.18488
H          0.11376        4.34228        0.15596
H         -0.86956        3.98141       -2.10317
H         -2.49336        3.60898       -1.40617
H         -2.49542        5.91656       -0.25781
H         -0.88526        6.24476       -1.00265
H         -3.15072        3.67938        2.73438
H         -5.04730        4.48211        1.35937
H         -4.08680        4.49862       -0.16293
H         -3.55051        2.08095        0.09040
H         -4.57851        2.01972        1.58427
H         -1.16828       -1.28357        2.05372
H         -1.48632        0.12056        1.35000

--Link1--
%chk=JID_3111.chk
%mem=8GB
%nprocshared=4
# B3LYP/6-311++G(d,p) empiricaldispersion=gd3bj scf=xqc pop=npa geom=check

CID_61480769_JID_3111_Energie_neutraal

0 1

--Link1--
%chk=JID_3111.chk
%mem=8GB
%nprocshared=4
# B3LYP/6-311++G(d,p) empiricaldispersion=gd3bj scf=xqc pop=npa geom=check

CID_61480769_JID_3111_Energie_kation

1 2

--Link1--
%chk=JID_3111.chk
%mem=8GB
%nprocshared=4
# B3LYP/6-311++G(d,p) empiricaldispersion=gd3bj scf=xqc pop=npa geom=check

CID_61480769_JID_3111_Energie_anion

-1 2
