%chk=JID_8442.chk
%mem=8GB
%nprocshared=4
# opt freq B3LYP/6-31G(d) empiricaldispersion=gd3bj scf=xqc

CID_115117218_JID_8442_neutraal

0 1
C          0.98728       -0.08944        0.04287
N          0.94898       -0.66805       -1.31666
C         -0.42293       -1.10056       -1.73733
C         -0.68174       -1.15388       -3.25433
C         -0.08940       -2.47285       -3.74653
C          0.06392       -3.35457       -2.51145
C         -0.65838       -2.60589       -1.38519
N         -0.21076       -3.07320       -0.07151
C          1.62923        0.20693       -2.19154
C          2.83308       -0.22881       -2.75822
C          3.57248        0.58705       -3.63022
C          3.11223        1.88305       -3.91776
C          3.85552        2.79098       -4.86627
C          5.30519        2.36657       -5.09406
C          5.38375        0.87248       -5.38066
C          4.87819        0.07132       -4.18236
C          1.90475        2.32137       -3.35765
C          1.17505        1.49434       -2.50034
H          0.55374       -0.76934        0.78046
H          0.42480        0.84971        0.10720
H          2.02196        0.09620        0.35590
H         -1.17271       -0.46374       -1.25125
H         -1.76778       -1.18284       -3.41870
H         -0.31536       -0.30459       -3.83388
H          0.88505       -2.31408       -4.22100
H         -0.74397       -2.93669       -4.49200
H          1.13106       -3.48010       -2.28774
H         -0.35483       -4.35407       -2.67028
H         -1.73414       -2.81244       -1.46294
H         -0.21756       -4.09176       -0.05667
H          0.77424       -2.80678        0.00907
H          3.19412       -1.22505       -2.51197
H          3.84579        3.81865       -4.48384
H          3.32256        2.78920       -5.82541
H          5.90733        2.60246       -4.20739
H          5.72784        2.93500       -5.93005
H          4.78248        0.63689       -6.26798
H          6.41647        0.58417       -5.60652
H          4.76850       -0.97791       -4.48161
H          5.62515        0.11069       -3.37953
H          1.52364        3.31383       -3.58664
H          0.24265        1.86108       -2.08150

--Link1--
%chk=JID_8442.chk
%mem=8GB
%nprocshared=4
# B3LYP/6-311++G(d,p) empiricaldispersion=gd3bj scf=xqc pop=npa geom=check

CID_115117218_JID_8442_Energie_neutraal

0 1

--Link1--
%chk=JID_8442.chk
%mem=8GB
%nprocshared=4
# B3LYP/6-311++G(d,p) empiricaldispersion=gd3bj scf=xqc pop=npa geom=check

CID_115117218_JID_8442_Energie_kation

1 2

--Link1--
%chk=JID_8442.chk
%mem=8GB
%nprocshared=4
# B3LYP/6-311++G(d,p) empiricaldispersion=gd3bj scf=xqc pop=npa geom=check

CID_115117218_JID_8442_Energie_anion

-1 2
