%chk=JID_1954.chk
%mem=8GB
%nprocshared=4
# opt freq B3LYP/6-31G(d) empiricaldispersion=gd3bj scf=xqc

CID_148845188_JID_1954_neutraal

0 1
C          0.94267       -0.04469       -0.06867
C          0.71803        1.29718       -0.74248
C          0.91414        2.48510        0.21507
C          0.40248        3.79499       -0.46100
C          1.86871        4.11724       -0.80577
C          2.28361        3.26947        0.43930
C          2.40378        4.06892        1.73343
N          3.43044        2.39524        0.10527
C          4.58837        3.12906       -0.40413
C          3.78386        1.45755        1.18734
C          4.86397        1.87368        2.18756
H          0.57971       -0.85185       -0.71365
H          0.41208       -0.10855        0.88641
H          2.00074       -0.23483        0.11351
H         -0.31904        1.30535       -1.10213
H          1.35762        1.38406       -1.62770
H          0.37926        2.28649        1.15459
H         -0.26471        3.68749       -1.32131
H         -0.06108        4.50387        0.23532
H          2.13000        5.17937       -0.77811
H          2.15481        3.71886       -1.78753
H          2.39213        3.41621        2.61187
H          3.31855        4.66954        1.75446
H          1.56791        4.76587        1.85796
H          4.97301        3.86562        0.30868
H          5.39870        2.43432       -0.65429
H          4.35921        3.65464       -1.33614
H          2.88918        1.16357        1.74922
H          4.13857        0.53736        0.70587
H          4.62789        2.81218        2.69356
H          4.96664        1.10118        2.95746
H          5.84103        1.97840        1.70544

--Link1--
%chk=JID_1954.chk
%mem=8GB
%nprocshared=4
# B3LYP/6-311++G(d,p) empiricaldispersion=gd3bj scf=xqc pop=npa geom=check

CID_148845188_JID_1954_Energie_neutraal

0 1

--Link1--
%chk=JID_1954.chk
%mem=8GB
%nprocshared=4
# B3LYP/6-311++G(d,p) empiricaldispersion=gd3bj scf=xqc pop=npa geom=check

CID_148845188_JID_1954_Energie_kation

1 2

--Link1--
%chk=JID_1954.chk
%mem=8GB
%nprocshared=4
# B3LYP/6-311++G(d,p) empiricaldispersion=gd3bj scf=xqc pop=npa geom=check

CID_148845188_JID_1954_Energie_anion

-1 2
