%chk=JID_6836.chk
%mem=8GB
%nprocshared=4
# opt freq B3LYP/6-31G(d) empiricaldispersion=gd3bj scf=xqc

CID_105474896_JID_6836_neutraal

0 1
C          1.06986        0.00350       -0.07146
C          0.71302       -0.69829        1.25014
C          1.09290        0.21161        2.43513
C         -0.82999       -0.85668        1.31261
N          1.35958       -2.02716        1.29699
C          2.56889       -2.43220        1.83862
C          2.55759       -3.81550        1.78101
C          1.44799       -4.12200        0.97274
N          0.73924       -3.04447        0.64776
C          3.48468       -4.85715        2.43040
C          2.96053       -6.28043        2.57853
C          3.98696       -5.98048        1.54274
N          4.35350       -4.42066        3.52795
C          3.67964       -1.53683        2.35608
C          5.12693       -1.78687        2.03967
C          4.40497       -0.64788        1.37844
H          0.56353        0.97210       -0.15366
H          0.77514       -0.59988       -0.93791
H          2.14446        0.18774       -0.15449
H          0.44873        1.09843        2.47495
H          0.99078       -0.31325        3.39163
H          2.11461        0.59038        2.35505
H         -1.22346       -1.40018        0.44570
H         -1.13389       -1.40144        2.21440
H         -1.33009        0.11896        1.32649
H          1.10215       -5.08639        0.62628
H          3.27327       -6.84954        3.44835
H          1.95688       -6.52665        2.25823
H          3.68812       -5.99972        0.50129
H          4.99362       -6.34889        1.70639
H          3.86397       -3.72555        4.08856
H          5.17732       -3.95817        3.15704
H          3.44624       -1.06113        3.30536
H          5.86404       -1.54404        2.79608
H          5.40335       -2.61327        1.39406
H          4.20974       -0.74971        0.31695
H          4.65561        0.35913        1.69042

--Link1--
%chk=JID_6836.chk
%mem=8GB
%nprocshared=4
# B3LYP/6-311++G(d,p) empiricaldispersion=gd3bj scf=xqc pop=npa geom=check

CID_105474896_JID_6836_Energie_neutraal

0 1

--Link1--
%chk=JID_6836.chk
%mem=8GB
%nprocshared=4
# B3LYP/6-311++G(d,p) empiricaldispersion=gd3bj scf=xqc pop=npa geom=check

CID_105474896_JID_6836_Energie_kation

1 2

--Link1--
%chk=JID_6836.chk
%mem=8GB
%nprocshared=4
# B3LYP/6-311++G(d,p) empiricaldispersion=gd3bj scf=xqc pop=npa geom=check

CID_105474896_JID_6836_Energie_anion

-1 2
