%chk=JID_9732.chk
%mem=8GB
%nprocshared=4
# opt freq B3LYP/6-31G(d) empiricaldispersion=gd3bj scf=xqc

CID_66254467_JID_9732_neutraal

0 1
C          0.94320       -0.01358       -0.08118
C          0.50501        0.59208        1.24662
C          1.06084        2.00045        1.47504
N          0.44540        2.97978        0.57722
C          1.20582        4.23234        0.51616
C          1.24504        5.04770        1.80532
O          1.56150        6.38323        1.38594
C          0.85500        6.60068        0.15520
C          0.61028        5.23479       -0.46769
C          1.14089        5.11781       -1.88409
O          0.38290        4.77387       -2.79656
N          2.42927        5.36966       -2.23373
C          3.61928        5.61158       -1.43566
C          4.43997        6.78051       -1.97536
S          6.13964        6.28954       -1.72651
O          6.56226        6.72993       -0.41361
O          6.89590        6.59228       -2.92220
C          5.79202        4.59471       -1.67315
C          4.47874        4.37995       -1.52344
H          0.52601        0.52949       -0.93396
H          0.59870       -1.05054       -0.15010
H          2.03413       -0.01430       -0.17152
H         -0.58998        0.59942        1.30569
H          0.86000       -0.05657        2.05658
H          0.86081        2.29148        2.51248
H          2.14920        1.97230        1.34112
H          0.35128        2.59235       -0.36254
H          2.22991        3.98849        0.22193
H          0.27417        5.06694        2.31483
H          2.00555        4.69423        2.50756
H          1.42750        7.29351       -0.46794
H         -0.09536        7.08827        0.40150
H         -0.47918        5.10082       -0.53713
H          2.56806        5.19900       -3.22569
H          3.36098        5.78684       -0.39131
H          4.24477        7.71448       -1.44298
H          4.29117        6.93442       -3.04952
H          6.57270        3.85442       -1.73854
H          4.06288        3.38280       -1.43560

--Link1--
%chk=JID_9732.chk
%mem=8GB
%nprocshared=4
# B3LYP/6-311++G(d,p) empiricaldispersion=gd3bj scf=xqc pop=npa geom=check

CID_66254467_JID_9732_Energie_neutraal

0 1

--Link1--
%chk=JID_9732.chk
%mem=8GB
%nprocshared=4
# B3LYP/6-311++G(d,p) empiricaldispersion=gd3bj scf=xqc pop=npa geom=check

CID_66254467_JID_9732_Energie_kation

1 2

--Link1--
%chk=JID_9732.chk
%mem=8GB
%nprocshared=4
# B3LYP/6-311++G(d,p) empiricaldispersion=gd3bj scf=xqc pop=npa geom=check

CID_66254467_JID_9732_Energie_anion

-1 2
