%chk=JID_2352.chk
%mem=8GB
%nprocshared=4
# opt freq B3LYP/6-31G(d) empiricaldispersion=gd3bj scf=xqc

CID_5395_JID_2352_neutraal

0 1
C          0.97645        0.07260        0.06461
C          0.27846       -0.74401        1.17463
C         -1.19003       -0.29463        1.36720
C         -2.15986       -0.83884        0.31915
C         -1.98008       -2.33651        0.08206
C         -0.51070       -2.78211       -0.10833
N          0.38842       -2.21437        0.94182
O         -0.05516       -2.83082        2.19477
C         -0.00422       -2.46990       -1.53382
C         -0.46221       -4.33637       -0.01616
O         -2.05688       -0.12598       -0.90879
C          1.06730       -0.38530        2.46891
H          1.14024        1.10916        0.38523
H          0.40565        0.14515       -0.85849
H          1.96077       -0.34703       -0.17429
H         -1.54317       -0.63390        2.35065
H         -1.23761        0.80193        1.38040
H         -3.18477       -0.67122        0.67194
H         -2.57086       -2.64335       -0.79088
H         -2.40546       -2.86172        0.94817
H          0.74837       -3.32241        2.45203
H          1.07404       -2.65004       -1.61752
H         -0.49438       -3.11547       -2.27347
H         -0.20397       -1.45291       -1.86372
H         -0.87177       -4.71528        0.92693
H         -1.05320       -4.79720       -0.81700
H          0.56609       -4.70605       -0.10808
H         -2.24526        0.80960       -0.72222
H          2.11072       -0.71560        2.40024
H          1.07291        0.69813        2.63951
H          0.63092       -0.83692        3.36687

--Link1--
%chk=JID_2352.chk
%mem=8GB
%nprocshared=4
# B3LYP/6-311++G(d,p) empiricaldispersion=gd3bj scf=xqc pop=npa geom=check

CID_5395_JID_2352_Energie_neutraal

0 1

--Link1--
%chk=JID_2352.chk
%mem=8GB
%nprocshared=4
# B3LYP/6-311++G(d,p) empiricaldispersion=gd3bj scf=xqc pop=npa geom=check

CID_5395_JID_2352_Energie_kation

1 2

--Link1--
%chk=JID_2352.chk
%mem=8GB
%nprocshared=4
# B3LYP/6-311++G(d,p) empiricaldispersion=gd3bj scf=xqc pop=npa geom=check

CID_5395_JID_2352_Energie_anion

-1 2
