%chk=JID_4560.chk
%mem=8GB
%nprocshared=4
# opt freq B3LYP/6-31G(d) empiricaldispersion=gd3bj scf=xqc

CID_12483526_JID_4560_neutraal

0 1
C          1.07484       -0.00595       -0.06605
C          0.67285       -0.34704        1.36025
C          0.95992        0.77801        2.36006
C          0.23134        2.08504        2.05577
O         -1.17715        1.83184        2.01599
C         -1.90369        2.73722        1.33779
O         -1.51034        3.72547        0.74372
C         -3.36525        2.35890        1.33094
N         -3.88215        1.64973        2.28565
N         -5.21246        1.34736        2.15367
C         -5.88233        0.92312        1.03910
O         -7.10142        1.05568        0.94605
N         -5.19505        0.32790        0.02561
C         -4.03716       -0.52294        0.20152
H          0.45912        0.80053       -0.47506
H          0.94366       -0.88024       -0.71181
H          2.12510        0.29792       -0.11665
H         -0.39083       -0.61121        1.38311
H          1.22353       -1.24095        1.67679
H          0.65224        0.42550        3.35241
H          2.03870        0.96728        2.40478
H          0.42908        2.80705        2.85586
H          0.59110        2.50771        1.11098
H         -3.93003        2.76155        0.47362
H         -5.79344        1.57463        2.95488
H         -5.82715        0.05960       -0.71868
H         -4.16473       -1.40135       -0.43742
H         -3.14601        0.01738       -0.12494
H         -3.93479       -0.85041        1.23886

--Link1--
%chk=JID_4560.chk
%mem=8GB
%nprocshared=4
# B3LYP/6-311++G(d,p) empiricaldispersion=gd3bj scf=xqc pop=npa geom=check

CID_12483526_JID_4560_Energie_neutraal

0 1

--Link1--
%chk=JID_4560.chk
%mem=8GB
%nprocshared=4
# B3LYP/6-311++G(d,p) empiricaldispersion=gd3bj scf=xqc pop=npa geom=check

CID_12483526_JID_4560_Energie_kation

1 2

--Link1--
%chk=JID_4560.chk
%mem=8GB
%nprocshared=4
# B3LYP/6-311++G(d,p) empiricaldispersion=gd3bj scf=xqc pop=npa geom=check

CID_12483526_JID_4560_Energie_anion

-1 2
