%chk=JID_8968.chk
%mem=8GB
%nprocshared=4
# opt freq B3LYP/6-31G(d) empiricaldispersion=gd3bj scf=xqc

CID_113776408_JID_8968_neutraal

0 1
C          0.99385        0.05186       -0.08528
C          0.70424        0.89725       -1.31680
N          1.13537        0.24407       -2.55455
C          0.23505       -0.76934       -3.08188
C          2.46576        0.42756       -2.93805
O          3.21047        1.17548       -2.28954
C          3.05100       -0.30093       -4.17962
C          3.03188       -1.81977       -4.02257
N          2.45844        0.25558       -5.40910
C          3.13823       -0.11472       -6.64722
C          2.63194       -1.39824       -7.26388
C          1.30465       -1.50566       -7.70846
C          0.81903       -2.69092       -8.28634
C          1.68332       -3.79374       -8.42637
C          3.01396       -3.67869       -7.99932
C          3.48372       -2.49446       -7.42893
C          1.21688       -5.08475       -9.04134
C         -0.61300       -2.75450       -8.74278
H          0.46165       -0.90375       -0.12814
H          0.67450        0.57813        0.81951
H          2.06315       -0.16512        0.00414
H         -0.36797        1.11205       -1.38796
H          1.20987        1.86440       -1.21613
H          0.40013       -0.96154       -4.13879
H          0.38296       -1.69649       -2.52096
H         -0.80073       -0.43610       -2.96614
H          4.11077       -0.00612       -4.17503
H          2.11033       -2.27521       -4.39443
H          3.86158       -2.27246       -4.57455
H          3.14398       -2.10967       -2.97205
H          1.46879        0.04843       -5.47298
H          2.96694        0.68530       -7.37857
H          4.22569       -0.14543       -6.50589
H          0.64238       -0.64686       -7.61112
H          3.70053       -4.51553       -8.10998
H          4.52213       -2.43772       -7.10995
H          0.36036       -5.48359       -8.48873
H          0.93614       -4.92662      -10.08736
H          2.00273       -5.84737       -9.01991
H         -1.15774       -3.51702       -8.17722
H         -1.12702       -1.79956       -8.58990
H         -0.66272       -2.98599       -9.81143

--Link1--
%chk=JID_8968.chk
%mem=8GB
%nprocshared=4
# B3LYP/6-311++G(d,p) empiricaldispersion=gd3bj scf=xqc pop=npa geom=check

CID_113776408_JID_8968_Energie_neutraal

0 1

--Link1--
%chk=JID_8968.chk
%mem=8GB
%nprocshared=4
# B3LYP/6-311++G(d,p) empiricaldispersion=gd3bj scf=xqc pop=npa geom=check

CID_113776408_JID_8968_Energie_kation

1 2

--Link1--
%chk=JID_8968.chk
%mem=8GB
%nprocshared=4
# B3LYP/6-311++G(d,p) empiricaldispersion=gd3bj scf=xqc pop=npa geom=check

CID_113776408_JID_8968_Energie_anion

-1 2
