%chk=JID_10238.chk
%mem=8GB
%nprocshared=4
# opt freq B3LYP/6-31G(d) empiricaldispersion=gd3bj scf=xqc

CID_62745147_JID_10238_neutraal

0 1
C          2.53200        1.02100        0.00000
C          1.19053        0.34530        0.00872
C         -0.00416        1.06048        0.05215
C         -1.16297        0.28584        0.02411
N         -1.13873       -1.06534       -0.01464
C          0.06293       -1.66620       -0.03114
N          1.23395       -1.00518       -0.02128
C          0.09905       -3.14254       -0.05673
C         -1.07175       -3.90389       -0.24203
C         -1.04092       -5.30224       -0.26440
C          0.16571       -5.97486       -0.09823
C          1.33956       -5.25115        0.08774
C          1.30463       -3.85275        0.10609
C         -2.53492        0.89914        0.02963
C         -0.05086        2.56699        0.10758
N         -0.39846        3.12854       -1.19463
C         -0.46192        4.59810       -1.27861
C          0.93551        5.22726       -1.15357
C         -1.02049        4.92000       -2.67794
C         -1.40727        5.20674       -0.22988
H          2.59947        1.73231       -0.82905
H          2.70247        1.54149        0.94730
H          3.33594        0.28801       -0.12745
H         -2.02893       -3.40132       -0.37467
H         -1.96151       -5.86081       -0.41151
H          0.19112       -7.06105       -0.11359
H          2.28523       -5.77017        0.21954
H          2.23699       -3.30994        0.25465
H         -2.68285        1.50851        0.92607
H         -2.68866        1.51225       -0.86293
H         -3.30563        0.12054        0.03095
H         -0.78291        2.85253        0.87085
H          0.90608        2.96259        0.45930
H          0.24851        2.77429       -1.89998
H          1.63441        4.79555       -1.87943
H          0.89571        6.30706       -1.33903
H          1.36014        5.08701       -0.15401
H         -2.02057        4.49178       -2.81685
H         -1.10206        6.00238       -2.83182
H         -0.37446        4.52425       -3.47077
H         -2.39448        4.73113       -0.25991
H         -1.01218        5.10481        0.78666
H         -1.55356        6.27834       -0.40965

--Link1--
%chk=JID_10238.chk
%mem=8GB
%nprocshared=4
# B3LYP/6-311++G(d,p) empiricaldispersion=gd3bj scf=xqc pop=npa geom=check

CID_62745147_JID_10238_Energie_neutraal

0 1

--Link1--
%chk=JID_10238.chk
%mem=8GB
%nprocshared=4
# B3LYP/6-311++G(d,p) empiricaldispersion=gd3bj scf=xqc pop=npa geom=check

CID_62745147_JID_10238_Energie_kation

1 2

--Link1--
%chk=JID_10238.chk
%mem=8GB
%nprocshared=4
# B3LYP/6-311++G(d,p) empiricaldispersion=gd3bj scf=xqc pop=npa geom=check

CID_62745147_JID_10238_Energie_anion

-1 2
