%chk=JID_9832.chk
%mem=8GB
%nprocshared=4
# opt freq B3LYP/6-31G(d) empiricaldispersion=gd3bj scf=xqc

CID_145268069_JID_9832_neutraal

0 1
C          2.50100       -0.11500        0.00200
C          1.02479       -0.25711       -0.18175
C          0.26445       -1.03772        0.67687
N         -1.06649       -1.23714        0.54752
C         -1.70653       -0.64934       -0.48627
C         -1.00808        0.13050       -1.41105
C          0.36429        0.32683       -1.25820
N         -3.09977       -0.83950       -0.72112
S         -3.99333       -1.79430        0.32788
C         -3.55474       -3.41888       -0.27731
C         -3.06644       -4.37574        0.61594
C         -2.72862       -5.65291        0.16587
C         -2.90598       -6.00220       -1.17793
C         -2.55535       -7.37732       -1.66855
C         -2.42496       -8.34511       -0.50218
C         -1.61089       -7.68317        0.59622
O         -2.26199       -6.52192        1.11773
C         -3.38884       -5.04058       -2.07411
C         -3.71460       -3.75849       -1.62465
H          2.76852       -0.15531        1.06317
H          3.02448       -0.91857       -0.52509
H          2.85173        0.84765       -0.38469
H          0.71389       -1.54888        1.52422
H         -1.52213        0.57088       -2.25902
H          0.90651        0.92575       -1.98491
H         -3.51062        0.07598       -0.87980
H         -2.92839       -4.12588        1.66454
H         -1.60506       -7.32153       -2.21342
H         -3.32107       -7.74480       -2.36129
H         -1.95455       -9.27708       -0.83213
H         -3.42373       -8.58909       -0.11843
H         -1.48328       -8.38248        1.42931
H         -0.60785       -7.40710        0.24750
H         -3.51921       -5.28460       -3.12558
H         -4.09315       -3.02526       -2.33167

--Link1--
%chk=JID_9832.chk
%mem=8GB
%nprocshared=4
# B3LYP/6-311++G(d,p) empiricaldispersion=gd3bj scf=xqc pop=npa geom=check

CID_145268069_JID_9832_Energie_neutraal

0 1

--Link1--
%chk=JID_9832.chk
%mem=8GB
%nprocshared=4
# B3LYP/6-311++G(d,p) empiricaldispersion=gd3bj scf=xqc pop=npa geom=check

CID_145268069_JID_9832_Energie_kation

1 2

--Link1--
%chk=JID_9832.chk
%mem=8GB
%nprocshared=4
# B3LYP/6-311++G(d,p) empiricaldispersion=gd3bj scf=xqc pop=npa geom=check

CID_145268069_JID_9832_Energie_anion

-1 2
