%chk=JID_8257.chk
%mem=8GB
%nprocshared=4
# opt freq B3LYP/6-31G(d) empiricaldispersion=gd3bj scf=xqc

CID_154643032_JID_8257_neutraal

0 1
C          1.05923       -0.07663        0.02488
C          1.13324       -0.58788       -1.40577
C          1.42865       -2.06487       -1.46222
C          0.39080       -2.99459       -1.59041
C          0.66466       -4.36448       -1.63326
C          1.98262       -4.83505       -1.54480
C          3.01906       -3.89899       -1.40362
C          2.74472       -2.52979       -1.36273
C          2.26138       -6.32965       -1.58956
C          2.72578       -6.83885       -0.22553
C          3.28991       -8.24221       -0.28746
O          3.16787       -9.01530        0.66324
N          4.04571       -8.54541       -1.42043
C          4.05657       -7.74738       -2.54579
C          3.23357       -6.70276       -2.67445
C          4.80713       -9.80253       -1.42620
C          3.93224      -11.01388       -1.76081
O          3.46163      -10.94204       -3.10623
H          0.27511       -0.59216        0.58978
H          0.83508        0.99473        0.03265
H          2.00736       -0.22797        0.55185
H          0.18789       -0.37759       -1.92067
H          1.90697       -0.03991       -1.95726
H         -0.64154       -2.65824       -1.65808
H         -0.16509       -5.06076       -1.73534
H          4.05302       -4.22887       -1.32510
H          3.56715       -1.82647       -1.25177
H          1.32312       -6.84353       -1.84427
H          1.88183       -6.83321        0.47535
H          3.50944       -6.20332        0.20627
H          4.72121       -8.03679       -3.35694
H          3.22846       -6.12980       -3.59847
H          5.62975       -9.71782       -2.14622
H          5.24984       -9.94155       -0.43290
H          4.52030      -11.93187       -1.66724
H          3.06637      -11.09441       -1.09648
H          2.87617      -10.16477       -3.14760

--Link1--
%chk=JID_8257.chk
%mem=8GB
%nprocshared=4
# B3LYP/6-311++G(d,p) empiricaldispersion=gd3bj scf=xqc pop=npa geom=check

CID_154643032_JID_8257_Energie_neutraal

0 1

--Link1--
%chk=JID_8257.chk
%mem=8GB
%nprocshared=4
# B3LYP/6-311++G(d,p) empiricaldispersion=gd3bj scf=xqc pop=npa geom=check

CID_154643032_JID_8257_Energie_kation

1 2

--Link1--
%chk=JID_8257.chk
%mem=8GB
%nprocshared=4
# B3LYP/6-311++G(d,p) empiricaldispersion=gd3bj scf=xqc pop=npa geom=check

CID_154643032_JID_8257_Energie_anion

-1 2
