%chk=JID_5799.chk
%mem=8GB
%nprocshared=4
# opt freq B3LYP/6-31G(d) empiricaldispersion=gd3bj scf=xqc

CID_64826808_JID_5799_neutraal

0 1
C          1.03701        0.09281        0.00405
C          0.59580       -1.35196        0.18622
C          1.68111       -2.26151        0.79768
C          1.14007       -3.68091        1.02872
C          0.95327       -4.48433       -0.26258
C          2.22876       -4.50443       -1.13300
C          2.78784       -3.08493       -1.34669
C          2.97374       -2.33893       -0.02600
N          2.13158       -5.30987       -2.35442
C          1.57785       -6.64557       -2.19266
C          1.93475       -4.73106       -3.68533
C          0.48458       -4.52109       -4.21149
C         -0.17560       -3.21920       -3.72058
O          0.40296       -2.06851       -4.34310
N          0.50405       -4.50079       -5.69526
H          1.43418        0.50487        0.93690
H          0.18476        0.70844       -0.30176
H          1.80181        0.18458       -0.77245
H         -0.28021       -1.35913        0.84712
H          0.25485       -1.73567       -0.77953
H          1.93802       -1.84205        1.77986
H          1.84221       -4.22280        1.67616
H          0.18970       -3.64107        1.57447
H          0.10394       -4.08473       -0.82092
H          0.67335       -5.50442        0.02661
H          2.98726       -5.01813       -0.52311
H          2.12665       -2.49694       -1.98882
H          3.75962       -3.14136       -1.85296
H          3.37707       -1.33959       -0.21965
H          3.73830       -2.85951        0.56602
H          0.49041       -6.62813       -2.06845
H          1.81044       -7.27670       -3.05778
H          2.01580       -7.14753       -1.32259
H          2.51732       -3.81147       -3.80768
H          2.43192       -5.42815       -4.37658
H         -0.13618       -5.37021       -3.90775
H         -1.23845       -3.22101       -3.98657
H         -0.11226       -3.09793       -2.64200
H          1.30011       -1.96083       -3.98511
H         -0.46001       -4.46749       -6.02961
H          0.88541       -3.59205       -5.97819

--Link1--
%chk=JID_5799.chk
%mem=8GB
%nprocshared=4
# B3LYP/6-311++G(d,p) empiricaldispersion=gd3bj scf=xqc pop=npa geom=check

CID_64826808_JID_5799_Energie_neutraal

0 1

--Link1--
%chk=JID_5799.chk
%mem=8GB
%nprocshared=4
# B3LYP/6-311++G(d,p) empiricaldispersion=gd3bj scf=xqc pop=npa geom=check

CID_64826808_JID_5799_Energie_kation

1 2

--Link1--
%chk=JID_5799.chk
%mem=8GB
%nprocshared=4
# B3LYP/6-311++G(d,p) empiricaldispersion=gd3bj scf=xqc pop=npa geom=check

CID_64826808_JID_5799_Energie_anion

-1 2
