%chk=JID_5201.chk
%mem=8GB
%nprocshared=4
# opt freq B3LYP/6-31G(d) empiricaldispersion=gd3bj scf=xqc

CID_105934688_JID_5201_neutraal

0 1
C          0.94933        0.08176        0.02734
C          0.53066       -0.57381        1.34001
C          1.27244       -0.02173        2.55195
O         -0.89984       -0.55537        1.52870
C         -1.55076        0.63572        1.60662
O         -1.02791        1.74386        1.56200
C         -3.05579        0.42653        1.70003
N         -3.60941        0.08528        0.37791
C         -5.06814        0.18574        0.34966
C         -5.60432        1.62226        0.25942
C         -5.16587        2.41092       -0.98265
C         -5.64622        1.83545       -2.32242
C         -7.16587        1.83436       -2.46756
O         -7.63681        3.17428       -2.34084
C         -8.98121        3.23284       -1.89030
H          0.82801        1.16850        0.04969
H          0.33932       -0.29405       -0.80080
H          2.00160       -0.12812       -0.19008
H          0.78392       -1.63804        1.26273
H          1.12165        1.05537        2.66970
H          0.91090       -0.49697        3.46997
H          2.34853       -0.20210        2.46484
H         -3.25944       -0.36592        2.42860
H         -3.47726        1.35555        2.09819
H         -3.20386        0.70325       -0.32507
H         -5.42838       -0.38722       -0.51173
H         -5.49532       -0.31018        1.23016
H         -6.69896        1.58673        0.30464
H         -5.29805        2.18659        1.14790
H         -5.53397        3.43946       -0.88095
H         -4.07364        2.49477       -1.00644
H         -5.21960        2.45710       -3.11969
H         -5.25827        0.82198       -2.46851
H         -7.44688        1.46071       -3.45839
H         -7.62274        1.17964       -1.71727
H         -9.63323        2.62169       -2.52077
H         -9.03723        2.89830       -0.84970
H         -9.31426        4.27303       -1.93676

--Link1--
%chk=JID_5201.chk
%mem=8GB
%nprocshared=4
# B3LYP/6-311++G(d,p) empiricaldispersion=gd3bj scf=xqc pop=npa geom=check

CID_105934688_JID_5201_Energie_neutraal

0 1

--Link1--
%chk=JID_5201.chk
%mem=8GB
%nprocshared=4
# B3LYP/6-311++G(d,p) empiricaldispersion=gd3bj scf=xqc pop=npa geom=check

CID_105934688_JID_5201_Energie_kation

1 2

--Link1--
%chk=JID_5201.chk
%mem=8GB
%nprocshared=4
# B3LYP/6-311++G(d,p) empiricaldispersion=gd3bj scf=xqc pop=npa geom=check

CID_105934688_JID_5201_Energie_anion

-1 2
