%chk=JID_5945.chk
%mem=8GB
%nprocshared=4
# opt freq B3LYP/6-31G(d) empiricaldispersion=gd3bj scf=xqc

CID_105467035_JID_5945_neutraal

0 1
C         -1.74700        0.00400       -0.45100
C         -0.52460        0.10700        0.48668
C          0.40829        1.28419        0.06136
C          1.20100        0.29274       -0.81130
C          0.62529       -0.85451        0.04035
C         -1.00467        0.10571        1.95439
C          0.01324       -0.32396        3.01171
N          1.10070        0.61115        3.18881
C          1.15892        1.63780        4.08431
O          2.11427        2.40099        4.10453
O          0.08705        1.68061        4.90847
C          0.00734        2.66612        5.96998
C          1.16454        2.51657        6.96538
C         -0.07875        4.08658        5.40237
C         -1.30602        2.34725        6.70093
H         -2.44799        0.82449       -0.26175
H         -1.46558        0.04665       -1.50849
H         -2.27764       -0.94095       -0.29041
H         -0.06932        2.10296       -0.48635
H          1.00946        1.72846        0.85909
H          2.28827        0.40305       -0.77806
H          0.88326        0.26995       -1.85951
H          1.32575       -1.17168        0.81819
H          0.31948       -1.74347       -0.51972
H         -1.40453        1.09710        2.20350
H         -1.84581       -0.59493        2.04261
H         -0.50633       -0.44377        3.96910
H          0.45032       -1.29790        2.77472
H          1.89930        0.56547        2.57096
H          2.12252        2.81363        6.52821
H          1.00766        3.13626        7.85501
H          1.27300        1.47318        7.28217
H         -0.86587        4.15455        4.64309
H         -0.29056        4.81792        6.18995
H          0.85321        4.38908        4.91549
H         -2.15902        2.40740        6.01510
H         -1.29508        1.32284        7.09151
H         -1.48416        3.03316        7.53592

--Link1--
%chk=JID_5945.chk
%mem=8GB
%nprocshared=4
# B3LYP/6-311++G(d,p) empiricaldispersion=gd3bj scf=xqc pop=npa geom=check

CID_105467035_JID_5945_Energie_neutraal

0 1

--Link1--
%chk=JID_5945.chk
%mem=8GB
%nprocshared=4
# B3LYP/6-311++G(d,p) empiricaldispersion=gd3bj scf=xqc pop=npa geom=check

CID_105467035_JID_5945_Energie_kation

1 2

--Link1--
%chk=JID_5945.chk
%mem=8GB
%nprocshared=4
# B3LYP/6-311++G(d,p) empiricaldispersion=gd3bj scf=xqc pop=npa geom=check

CID_105467035_JID_5945_Energie_anion

-1 2
