%chk=JID_10182.chk
%mem=8GB
%nprocshared=4
# opt freq B3LYP/6-31G(d) empiricaldispersion=gd3bj scf=xqc

CID_58753516_JID_10182_neutraal

0 1
C          2.62500       -0.32100        0.00300
C          1.23479        0.07447        0.37343
C          0.49731       -0.49571        1.39244
S         -1.03525        0.23510        1.58824
C         -0.77995        1.28987        0.26665
C          0.48735        1.11757       -0.26228
C         -1.73564        2.31193       -0.12360
O         -1.38389        3.40777       -0.56492
N         -3.09324        2.10317       -0.01544
C         -3.79317        0.84728       -0.31847
C         -4.83113        0.50184        0.76076
C         -5.79758        1.61944        1.18937
C         -6.73567        2.15061        0.10653
N         -7.56301        1.11244       -0.47611
C         -8.70469        0.58120        0.01646
O         -9.19165       -0.44246       -0.44476
N         -9.27989        1.22079        1.05452
C         -4.42999        0.88353       -1.71616
O         -5.14170        0.02174       -2.20705
O         -4.16289        2.01197       -2.40729
H          2.89947        0.07361       -0.98057
H          3.33656        0.06623        0.73922
H          2.72003       -1.41115       -0.03267
H          0.79621       -1.29767        2.05445
H          0.86291        1.72967       -1.07577
H         -3.55809        2.92126       -0.39485
H         -3.06130        0.03683       -0.38868
H         -5.40953       -0.37733        0.45077
H         -4.28654        0.19650        1.66376
H         -6.40298        1.23125        2.01901
H         -5.22608        2.45898        1.60238
H         -7.37604        2.92683        0.53697
H         -6.17928        2.62374       -0.70594
H         -7.16345        0.53257       -1.21052
H         -9.27740        2.22825        1.02693
H        -10.17486        0.82069        1.30743
H         -4.59220        1.87964       -3.27982

--Link1--
%chk=JID_10182.chk
%mem=8GB
%nprocshared=4
# B3LYP/6-311++G(d,p) empiricaldispersion=gd3bj scf=xqc pop=npa geom=check

CID_58753516_JID_10182_Energie_neutraal

0 1

--Link1--
%chk=JID_10182.chk
%mem=8GB
%nprocshared=4
# B3LYP/6-311++G(d,p) empiricaldispersion=gd3bj scf=xqc pop=npa geom=check

CID_58753516_JID_10182_Energie_kation

1 2

--Link1--
%chk=JID_10182.chk
%mem=8GB
%nprocshared=4
# B3LYP/6-311++G(d,p) empiricaldispersion=gd3bj scf=xqc pop=npa geom=check

CID_58753516_JID_10182_Energie_anion

-1 2
