%chk=JID_5499.chk
%mem=8GB
%nprocshared=4
# opt freq B3LYP/6-31G(d) empiricaldispersion=gd3bj scf=xqc

CID_81492720_JID_5499_neutraal

0 1
C         -2.12000        0.67600        0.36300
C         -2.09525       -0.37445       -0.75641
C         -0.82820       -1.24081       -0.73295
C          0.39958       -0.33439       -0.74267
C          0.36758        0.55535        0.49816
C         -0.82632        1.49633        0.44828
C          1.75001        1.17965        0.47041
C          2.63037        0.03845       -0.05329
N          1.70115       -0.96378       -0.59311
C          2.21970       -1.79959       -1.66639
C          2.28480       -1.34181       -3.13516
C          0.99305       -1.39178       -3.93480
C          1.38165       -0.65469       -5.20513
N          2.35102        0.37054       -4.79847
C          2.78728        0.06323       -3.42643
H         -2.97322        1.34819        0.21786
H         -2.27976        0.16522        1.32105
H         -2.98033       -1.01567       -0.67657
H         -2.16028        0.13700       -1.72503
H         -0.83449       -1.87244        0.16446
H         -0.82831       -1.91577       -1.59495
H          0.37950        0.30350       -1.63499
H          0.28719       -0.06079        1.40755
H         -0.75605        2.15994       -0.42223
H         -0.84724        2.13389        1.33908
H          2.06645        1.52822        1.45809
H          1.78092        2.02806       -0.22366
H          3.20110       -0.40909        0.76792
H          3.34809        0.42357       -0.78305
H          3.23543       -2.10374       -1.37674
H          1.64866       -2.73759       -1.64787
H          2.97855       -2.04164       -3.62859
H          0.66955       -2.41729       -4.13773
H          0.17333       -0.86311       -3.44437
H          0.51507       -0.20804       -5.70115
H          1.85785       -1.34729       -5.90920
H          3.14867        0.35600       -5.43298
H          2.33774        0.81221       -2.76986
H          3.87539        0.13529       -3.33114

--Link1--
%chk=JID_5499.chk
%mem=8GB
%nprocshared=4
# B3LYP/6-311++G(d,p) empiricaldispersion=gd3bj scf=xqc pop=npa geom=check

CID_81492720_JID_5499_Energie_neutraal

0 1

--Link1--
%chk=JID_5499.chk
%mem=8GB
%nprocshared=4
# B3LYP/6-311++G(d,p) empiricaldispersion=gd3bj scf=xqc pop=npa geom=check

CID_81492720_JID_5499_Energie_kation

1 2

--Link1--
%chk=JID_5499.chk
%mem=8GB
%nprocshared=4
# B3LYP/6-311++G(d,p) empiricaldispersion=gd3bj scf=xqc pop=npa geom=check

CID_81492720_JID_5499_Energie_anion

-1 2
