%chk=JID_4178.chk
%mem=8GB
%nprocshared=4
# opt freq B3LYP/6-31G(d) empiricaldispersion=gd3bj scf=xqc

CID_101724554_JID_4178_neutraal

0 1
C          1.02707       -0.06238       -0.07332
C          0.12042       -0.68779        0.97620
C         -0.32490        0.30250        2.05447
C         -1.28482        1.37383        1.52815
C         -1.80564        2.31223        2.62568
C         -0.72174        3.17012        3.28385
N         -0.16022        4.07037        2.28405
C          1.10596        4.23414        2.12995
C          2.21245        3.67703        2.91432
C          2.26432        3.80192        4.29387
N          3.28918        3.33467        5.04655
C          4.30346        2.73276        4.38514
C          4.34633        2.58483        3.00616
C          3.28202        3.07640        2.25466
H          0.49859        0.69177       -0.66344
H          1.38685       -0.83138       -0.76448
H          1.89886        0.40957        0.39080
H         -0.75430       -1.13362        0.48888
H          0.66579       -1.50662        1.46071
H         -0.82371       -0.25833        2.85447
H          0.56364        0.76505        2.49725
H         -0.80291        1.96437        0.74169
H         -2.14735        0.88011        1.06342
H         -2.56588        2.96982        2.18544
H         -2.31004        1.72011        3.39870
H         -1.18009        3.77286        4.07599
H          0.01132        2.51729        3.76266
H          1.42328        4.87045        1.28474
H          1.47517        4.29998        4.84968
H          5.11031        2.36375        5.01284
H          5.19034        2.09795        2.52973
H          3.28586        2.97552        1.17296

--Link1--
%chk=JID_4178.chk
%mem=8GB
%nprocshared=4
# B3LYP/6-311++G(d,p) empiricaldispersion=gd3bj scf=xqc pop=npa geom=check

CID_101724554_JID_4178_Energie_neutraal

0 1

--Link1--
%chk=JID_4178.chk
%mem=8GB
%nprocshared=4
# B3LYP/6-311++G(d,p) empiricaldispersion=gd3bj scf=xqc pop=npa geom=check

CID_101724554_JID_4178_Energie_kation

1 2

--Link1--
%chk=JID_4178.chk
%mem=8GB
%nprocshared=4
# B3LYP/6-311++G(d,p) empiricaldispersion=gd3bj scf=xqc pop=npa geom=check

CID_101724554_JID_4178_Energie_anion

-1 2
