%chk=JID_3031.chk
%mem=8GB
%nprocshared=4
# opt freq B3LYP/6-31G(d) empiricaldispersion=gd3bj scf=xqc

CID_102267826_JID_3031_neutraal

0 1
C          1.08083       -0.01688       -0.05641
N          0.56709        1.33580       -0.23101
C          1.49857        2.41305        0.12878
C          0.91354        3.79749       -0.04727
C          1.76131        4.91501        0.05968
C          1.25195        6.20680       -0.06206
C         -0.10802        6.39646       -0.28526
C         -0.95984        5.29425       -0.38758
C         -0.46581        3.98479       -0.27013
C         -1.35947        2.80935       -0.38025
C         -0.79103        1.58977       -0.35499
O         -2.69966        3.09815       -0.50909
C         -3.59512        2.00275       -0.64255
H          0.55339       -0.72345       -0.70643
H          0.95623       -0.33849        0.98277
H          2.14486       -0.07014       -0.31054
H          2.39460        2.32703       -0.49806
H          1.79688        2.29486        1.17793
H          2.82514        4.77931        0.24036
H          1.91445        7.06431        0.01951
H         -0.51103        7.40115       -0.37997
H         -2.01936        5.46626       -0.56277
H         -1.38041        0.68383       -0.44468
H         -3.37782        1.42565       -1.54733
H         -3.56966        1.36391        0.24628
H         -4.60784        2.40589       -0.73706

--Link1--
%chk=JID_3031.chk
%mem=8GB
%nprocshared=4
# B3LYP/6-311++G(d,p) empiricaldispersion=gd3bj scf=xqc pop=npa geom=check

CID_102267826_JID_3031_Energie_neutraal

0 1

--Link1--
%chk=JID_3031.chk
%mem=8GB
%nprocshared=4
# B3LYP/6-311++G(d,p) empiricaldispersion=gd3bj scf=xqc pop=npa geom=check

CID_102267826_JID_3031_Energie_kation

1 2

--Link1--
%chk=JID_3031.chk
%mem=8GB
%nprocshared=4
# B3LYP/6-311++G(d,p) empiricaldispersion=gd3bj scf=xqc pop=npa geom=check

CID_102267826_JID_3031_Energie_anion

-1 2
