%chk=JID_10319.chk
%mem=8GB
%nprocshared=4
# opt freq B3LYP/6-31G(d) empiricaldispersion=gd3bj scf=xqc

CID_81974287_JID_10319_neutraal

0 1
C          0.93704       -0.05845        0.05119
C          0.94375       -0.05725        1.57143
C          1.22938        1.31843        2.18136
C          0.20737        2.42665        1.84326
C         -1.25305        2.07395        2.15443
C         -1.48006        1.63237        3.57255
O         -0.85292        1.96524        4.56315
O         -2.53851        0.80478        3.68204
N          0.56757        3.67566        2.55224
C          1.53756        4.48919        2.02657
C          2.77597        4.89054        2.50973
C          3.30658        5.76079        1.51845
N          2.45482        5.90938        0.49366
N          1.37655        5.18276        0.84726
C          0.19484        5.26682        0.02076
C          4.60870        6.49494        1.47804
C          5.72725        5.66379        0.86835
N          3.38194        4.47221        3.74123
O          4.55351        4.81444        3.94465
O          2.69611        3.78909        4.51458
H          0.11011        0.53569       -0.34824
H          0.82168       -1.08070       -0.32314
H          1.87482        0.34330       -0.34543
H         -0.00705       -0.45346        1.94354
H          1.72050       -0.75173        1.91423
H          1.30834        1.20010        3.26919
H          2.22604        1.64232        1.85311
H          0.25564        2.60862        0.76327
H         -1.90236        2.93814        1.97059
H         -1.57890        1.27012        1.48442
H         -2.59689        0.61764        4.64331
H          0.68958        3.45774        3.55614
H          0.12875        6.27316       -0.40216
H          0.28587        4.52746       -0.77828
H         -0.69401        5.07547        0.62576
H          4.49109        7.41292        0.88769
H          4.89348        6.82602        2.48229
H          5.48947        5.37958       -0.16248
H          6.66035        6.23594        0.85541
H          5.89961        4.74431        1.43698

--Link1--
%chk=JID_10319.chk
%mem=8GB
%nprocshared=4
# B3LYP/6-311++G(d,p) empiricaldispersion=gd3bj scf=xqc pop=npa geom=check

CID_81974287_JID_10319_Energie_neutraal

0 1

--Link1--
%chk=JID_10319.chk
%mem=8GB
%nprocshared=4
# B3LYP/6-311++G(d,p) empiricaldispersion=gd3bj scf=xqc pop=npa geom=check

CID_81974287_JID_10319_Energie_kation

1 2

--Link1--
%chk=JID_10319.chk
%mem=8GB
%nprocshared=4
# B3LYP/6-311++G(d,p) empiricaldispersion=gd3bj scf=xqc pop=npa geom=check

CID_81974287_JID_10319_Energie_anion

-1 2
