%chk=JID_8539.chk
%mem=8GB
%nprocshared=4
# opt freq B3LYP/6-31G(d) empiricaldispersion=gd3bj scf=xqc

CID_151702612_JID_8539_neutraal

0 1
C          0.97612        0.06445       -0.07264
O          0.86359       -1.31948        0.27439
C          0.29435       -2.09937       -0.68902
O         -0.08409       -1.65756       -1.76962
C          0.09110       -3.52874       -0.24635
C          0.65638       -3.79406        1.13667
O         -0.06320       -4.00645        2.11033
N          2.03490       -3.78733        1.20164
N          2.45898       -3.84910        2.36866
N          2.88513       -3.90102        3.42447
C         -1.40168       -3.76745       -0.25892
O         -1.97214       -4.68259       -0.84034
O         -2.05978       -2.80918        0.46379
C         -3.47974       -2.96845        0.51020
C          0.77471       -4.46788       -1.21126
O          1.45953       -4.12745       -2.16807
O          0.60695       -5.77261       -0.83583
C          1.19667       -6.73003       -1.71963
H          1.37972        0.59718        0.79274
H         -0.00629        0.48463       -0.30992
H          1.66722        0.18868       -0.91185
H         -3.90628       -2.85197       -0.49063
H         -3.74481       -3.94049        0.93728
H         -3.88587       -2.18439        1.15510
H          0.82937       -6.59247       -2.74146
H          2.28745       -6.65392       -1.68359
H          0.90510       -7.72757       -1.37952

--Link1--
%chk=JID_8539.chk
%mem=8GB
%nprocshared=4
# B3LYP/6-311++G(d,p) empiricaldispersion=gd3bj scf=xqc pop=npa geom=check

CID_151702612_JID_8539_Energie_neutraal

0 1

--Link1--
%chk=JID_8539.chk
%mem=8GB
%nprocshared=4
# B3LYP/6-311++G(d,p) empiricaldispersion=gd3bj scf=xqc pop=npa geom=check

CID_151702612_JID_8539_Energie_kation

1 2

--Link1--
%chk=JID_8539.chk
%mem=8GB
%nprocshared=4
# B3LYP/6-311++G(d,p) empiricaldispersion=gd3bj scf=xqc pop=npa geom=check

CID_151702612_JID_8539_Energie_anion

-1 2
