%chk=JID_7357.chk
%mem=8GB
%nprocshared=4
# opt freq B3LYP/6-31G(d) empiricaldispersion=gd3bj scf=xqc

CID_64668254_JID_7357_neutraal

0 1
C         -1.68800        1.55400        0.08200
N         -0.60273        0.58871        0.01379
C          0.72517        1.07622        0.39280
C          1.86177        0.13129       -0.02627
C          1.53688       -1.24470        0.54119
C          0.19917       -1.75793        0.03739
C         -0.93682       -0.75698        0.13529
O         -2.10012       -1.15156        0.20447
N          1.95744        0.14444       -1.50335
S          3.31595       -0.46473       -2.27501
O          3.61107       -1.77114       -1.73706
O          3.12722       -0.23937       -3.68897
C          4.65820        0.50501       -1.86045
C          4.80984        1.86666       -2.00034
N          6.06067        2.14419       -1.53145
N          6.70939        1.06230       -1.06316
C          5.85659        0.05672       -1.28872
H         -2.59996        1.15221       -0.36894
H         -1.88378        1.79179        1.13186
H         -1.40094        2.46075       -0.45790
H          0.87300        2.06059       -0.06735
H          0.72472        1.20498        1.48210
H          2.79969        0.50606        0.39800
H          2.31858       -1.97489        0.31649
H          1.49869       -1.17315        1.63648
H          0.27705       -2.06455       -1.01201
H         -0.07962       -2.64488        0.61809
H          1.09977       -0.08574       -2.00915
H          4.16298        2.63314       -2.40257
H          6.53538        3.04129       -1.49361
H          6.14428       -0.95288       -1.01974

--Link1--
%chk=JID_7357.chk
%mem=8GB
%nprocshared=4
# B3LYP/6-311++G(d,p) empiricaldispersion=gd3bj scf=xqc pop=npa geom=check

CID_64668254_JID_7357_Energie_neutraal

0 1

--Link1--
%chk=JID_7357.chk
%mem=8GB
%nprocshared=4
# B3LYP/6-311++G(d,p) empiricaldispersion=gd3bj scf=xqc pop=npa geom=check

CID_64668254_JID_7357_Energie_kation

1 2

--Link1--
%chk=JID_7357.chk
%mem=8GB
%nprocshared=4
# B3LYP/6-311++G(d,p) empiricaldispersion=gd3bj scf=xqc pop=npa geom=check

CID_64668254_JID_7357_Energie_anion

-1 2
