%chk=JID_4854.chk
%mem=8GB
%nprocshared=4
# opt freq B3LYP/6-31G(d) empiricaldispersion=gd3bj scf=xqc

CID_63608707_JID_4854_neutraal

0 1
C          1.01004       -0.07950        0.05983
C          0.43830       -1.27868        0.85909
C         -1.10924       -1.09319        1.04624
N         -1.86666       -1.20316       -0.21095
C         -1.56243       -2.46647       -0.89480
C         -0.04244       -2.66323       -1.10348
N          0.78073       -2.53993        0.12403
C          0.65423       -3.75516        0.93177
C         -3.30230       -0.92428       -0.06843
C         -4.14134       -1.85449        0.81457
C         -4.17422       -1.43281        2.25701
O         -3.88891       -0.34551        2.72681
O         -4.62523       -2.42067        3.05751
C          1.10560       -1.22204        2.25366
H          0.86177        0.86006        0.60562
H          0.53488        0.04871       -0.91766
H          2.08791       -0.19500       -0.10520
H         -1.47040       -1.83757        1.76681
H         -1.29096       -0.10487        1.48804
H         -2.04260       -2.47491       -1.88065
H         -1.95518       -3.32407       -0.33718
H          0.31217       -1.93312       -1.84128
H          0.13273       -3.63737       -1.57831
H         -0.34089       -3.87741        1.37100
H          0.86682       -4.64408        0.32612
H          1.39626       -3.77245        1.73638
H         -3.42216        0.11744        0.25507
H         -3.73404       -0.94977       -1.07800
H         -5.17955       -1.83085        0.46170
H         -3.79597       -2.89007        0.74876
H         -4.62903       -2.01940        3.95216
H          2.18662       -1.39001        2.18439
H          0.95590       -0.24126        2.72077
H          0.68656       -1.96424        2.94178

--Link1--
%chk=JID_4854.chk
%mem=8GB
%nprocshared=4
# B3LYP/6-311++G(d,p) empiricaldispersion=gd3bj scf=xqc pop=npa geom=check

CID_63608707_JID_4854_Energie_neutraal

0 1

--Link1--
%chk=JID_4854.chk
%mem=8GB
%nprocshared=4
# B3LYP/6-311++G(d,p) empiricaldispersion=gd3bj scf=xqc pop=npa geom=check

CID_63608707_JID_4854_Energie_kation

1 2

--Link1--
%chk=JID_4854.chk
%mem=8GB
%nprocshared=4
# B3LYP/6-311++G(d,p) empiricaldispersion=gd3bj scf=xqc pop=npa geom=check

CID_63608707_JID_4854_Energie_anion

-1 2
