%chk=JID_2213.chk
%mem=8GB
%nprocshared=4
# opt freq B3LYP/6-31G(d) empiricaldispersion=gd3bj scf=xqc

CID_130816213_JID_2213_neutraal

0 1
C          1.00155       -0.07243       -0.06893
C          0.74074       -1.39819        0.63482
C          1.48849       -1.53180        1.96238
C          0.74992       -1.04175        3.21753
C          0.95673        0.42918        3.53892
C         -0.40123       -0.04785        3.13723
N          0.72788       -2.05659        4.30243
C          0.71734       -1.61966        5.69637
C          0.27913       -2.84597        6.49812
C         -0.11264       -3.88999        5.45210
C         -0.33244       -3.06273        4.18310
N         -1.25623       -4.70511        5.85747
H          0.65818        0.78240        0.51785
H          0.47813       -0.04995       -1.03023
H          2.07036        0.05911       -0.26695
H         -0.33471       -1.55855        0.76602
H          1.09213       -2.19212       -0.03650
H          1.71005       -2.59991        2.09272
H          2.47008       -1.04444        1.90235
H          1.10656        0.74810        4.56216
H          1.50480        1.04365        2.83236
H         -0.78987        0.26233        2.17698
H         -1.17126       -0.07619        3.90043
H          1.70592       -1.27228        6.01308
H         -0.00512       -0.81498        5.87493
H         -0.56133       -2.57911        7.15026
H          1.08629       -3.22422        7.13543
H          0.74083       -4.56198        5.29039
H         -1.32622       -2.59747        4.17687
H         -0.22712       -3.67838        3.28383
H         -1.04452       -5.16238        6.74373
H         -2.06035       -4.10472        6.03617

--Link1--
%chk=JID_2213.chk
%mem=8GB
%nprocshared=4
# B3LYP/6-311++G(d,p) empiricaldispersion=gd3bj scf=xqc pop=npa geom=check

CID_130816213_JID_2213_Energie_neutraal

0 1

--Link1--
%chk=JID_2213.chk
%mem=8GB
%nprocshared=4
# B3LYP/6-311++G(d,p) empiricaldispersion=gd3bj scf=xqc pop=npa geom=check

CID_130816213_JID_2213_Energie_kation

1 2

--Link1--
%chk=JID_2213.chk
%mem=8GB
%nprocshared=4
# B3LYP/6-311++G(d,p) empiricaldispersion=gd3bj scf=xqc pop=npa geom=check

CID_130816213_JID_2213_Energie_anion

-1 2
