%chk=JID_7455.chk
%mem=8GB
%nprocshared=4
# opt freq B3LYP/6-31G(d) empiricaldispersion=gd3bj scf=xqc

CID_93710544_JID_7455_neutraal

0 1
C          1.08219        0.00657        0.05658
C          1.99075        1.20596       -0.14913
O          3.00469        0.80929       -1.06547
C          4.03133        1.66125       -1.34724
C          4.03331        3.00050       -0.91926
C          5.10014        3.85251       -1.21122
C          6.18027        3.37829       -1.93952
C          6.18387        2.05449       -2.37526
C          5.11825        1.17961       -2.09633
O          5.36067       -0.06061       -2.61271
C          4.46349       -1.18532       -2.68385
C          4.22386       -1.78713       -1.28846
C          3.18854       -0.86517       -3.48524
C          5.28245       -2.21570       -3.51333
C          4.55144       -3.49450       -3.87491
O          3.94415       -3.60175       -4.94198
C          4.53634       -4.61695       -2.87123
H          0.64541       -0.31452       -0.89500
H          0.27395        0.24570        0.75336
H          1.64716       -0.84427        0.45128
H          1.40540        2.03414       -0.56351
H          2.43096        1.49415        0.81224
H          3.20720        3.41734       -0.35228
H          5.08309        4.88394       -0.86887
H          7.01706        4.03112       -2.17167
H          7.03473        1.69047       -2.94818
H          5.07150       -2.41214       -0.98229
H          4.15254       -1.04799       -0.49113
H          3.32291       -2.40700       -1.26477
H          3.44326       -0.62290       -4.52435
H          2.49532       -1.71287       -3.49317
H          2.63253       -0.00102       -3.12730
H          5.61383       -1.75433       -4.45461
H          6.21852       -2.47575       -3.00188
H          5.45672       -4.61479       -2.28251
H          3.67129       -4.51322       -2.21329
H          4.47518       -5.57252       -3.39955

--Link1--
%chk=JID_7455.chk
%mem=8GB
%nprocshared=4
# B3LYP/6-311++G(d,p) empiricaldispersion=gd3bj scf=xqc pop=npa geom=check

CID_93710544_JID_7455_Energie_neutraal

0 1

--Link1--
%chk=JID_7455.chk
%mem=8GB
%nprocshared=4
# B3LYP/6-311++G(d,p) empiricaldispersion=gd3bj scf=xqc pop=npa geom=check

CID_93710544_JID_7455_Energie_kation

1 2

--Link1--
%chk=JID_7455.chk
%mem=8GB
%nprocshared=4
# B3LYP/6-311++G(d,p) empiricaldispersion=gd3bj scf=xqc pop=npa geom=check

CID_93710544_JID_7455_Energie_anion

-1 2
