%chk=JID_2638.chk
%mem=8GB
%nprocshared=4
# opt freq B3LYP/6-31G(d) empiricaldispersion=gd3bj scf=xqc

CID_68303216_JID_2638_neutraal

0 1
C         -2.21800       -0.13100       -0.00500
C         -0.74642       -0.13348        0.12881
N          0.06503        0.90006        0.20480
C          1.31199        0.32039        0.31806
N          1.30028       -1.01824        0.30728
N         -0.01037       -1.28238        0.19507
C          2.56392        1.12908        0.42751
C          2.47324        2.24451        1.41442
N          3.44411        2.78526        2.12504
C          2.80634        3.76694        2.82899
N          1.49786        3.88093        2.59371
N          1.30618        2.90537        1.69051
H         -2.52803       -0.69952       -0.88720
H         -2.68545       -0.57598        0.87871
H         -2.59295        0.89166       -0.11046
H         -0.32364       -2.24656        0.16858
H          2.79732        1.54855       -0.55825
H          3.40202        0.47885        0.70578
H          3.31189        4.41735        3.53110
H          0.37953        2.72143        1.31238

--Link1--
%chk=JID_2638.chk
%mem=8GB
%nprocshared=4
# B3LYP/6-311++G(d,p) empiricaldispersion=gd3bj scf=xqc pop=npa geom=check

CID_68303216_JID_2638_Energie_neutraal

0 1

--Link1--
%chk=JID_2638.chk
%mem=8GB
%nprocshared=4
# B3LYP/6-311++G(d,p) empiricaldispersion=gd3bj scf=xqc pop=npa geom=check

CID_68303216_JID_2638_Energie_kation

1 2

--Link1--
%chk=JID_2638.chk
%mem=8GB
%nprocshared=4
# B3LYP/6-311++G(d,p) empiricaldispersion=gd3bj scf=xqc pop=npa geom=check

CID_68303216_JID_2638_Energie_anion

-1 2
