%chk=JID_10172.chk
%mem=8GB
%nprocshared=4
# opt freq B3LYP/6-31G(d) empiricaldispersion=gd3bj scf=xqc

CID_139013158_JID_10172_neutraal

0 1
C         -2.47500       -0.07800       -0.00600
C         -1.00620        0.10661       -0.23598
C         -0.19361       -0.97779       -0.47498
C          1.12929       -0.69293       -0.71447
N          1.60855        0.56092       -0.75807
C          0.75823        1.56588       -0.51788
N         -0.53885        1.36856       -0.23551
N          1.20408        2.89846       -0.58076
C          1.07294        3.51735        0.73587
C          1.16311        5.04659        0.68618
C          2.57243        5.67760        0.62959
S          3.27806        5.66185       -1.07421
O          4.67883        5.28698       -0.98820
O          2.92435        6.91277       -1.72545
C          2.47190        4.39593       -2.00706
C          2.46558        3.05756       -1.30561
C          3.56015        5.01527        1.60720
C          2.43960        7.16000        1.05832
O          2.08258       -1.63699       -0.98036
C          1.86163       -2.91833       -0.40611
H         -2.94931        0.87007        0.26768
H         -2.95434       -0.45093       -0.91640
H         -2.64702       -0.78913        0.80811
H         -0.59454       -1.98007       -0.48957
H          0.08076        3.30011        1.15584
H          1.79324        3.08903        1.44234
H          0.68536        5.39883        1.61206
H          0.54055        5.43277       -0.13089
H          3.04316        4.32397       -2.94033
H          1.46625        4.74431       -2.26462
H          3.33121        2.90039       -0.65347
H          2.53442        2.31374       -2.11111
H          4.49451        5.58556        1.67176
H          3.13938        4.96331        2.61753
H          3.83258        4.00159        1.30067
H          1.69982        7.68830        0.44626
H          2.12069        7.24328        2.10369
H          3.39315        7.69116        0.95846
H          1.59168       -2.84838        0.65356
H          1.10048       -3.46872       -0.96826
H          2.79695       -3.48224       -0.47480

--Link1--
%chk=JID_10172.chk
%mem=8GB
%nprocshared=4
# B3LYP/6-311++G(d,p) empiricaldispersion=gd3bj scf=xqc pop=npa geom=check

CID_139013158_JID_10172_Energie_neutraal

0 1

--Link1--
%chk=JID_10172.chk
%mem=8GB
%nprocshared=4
# B3LYP/6-311++G(d,p) empiricaldispersion=gd3bj scf=xqc pop=npa geom=check

CID_139013158_JID_10172_Energie_kation

1 2

--Link1--
%chk=JID_10172.chk
%mem=8GB
%nprocshared=4
# B3LYP/6-311++G(d,p) empiricaldispersion=gd3bj scf=xqc pop=npa geom=check

CID_139013158_JID_10172_Energie_anion

-1 2
