%chk=JID_7889.chk
%mem=8GB
%nprocshared=4
# opt freq B3LYP/6-31G(d) empiricaldispersion=gd3bj scf=xqc

CID_82542916_JID_7889_neutraal

0 1
C          1.05712        0.07100       -0.04118
C          0.36803       -0.38305        1.25020
C          0.89582        0.36054        2.49844
C          0.64736        1.87098        2.57942
N         -0.58541        2.18970        3.28836
C         -1.14518       -0.41690        1.12082
C         -1.87643        0.63661        0.55660
C         -3.26328        0.55419        0.43402
C         -3.93826       -0.59316        0.85284
C         -3.23610       -1.66882        1.40800
C         -1.84371       -1.56068        1.54996
C         -3.93847       -2.88557        1.78449
C         -3.51606       -3.79994        2.72788
N         -4.44822       -4.79692        2.74452
N         -5.46287       -4.59679        1.88583
C         -5.15087       -3.43599        1.30292
C         -4.42650       -5.99287        3.55039
H          0.83744        1.11139       -0.29779
H          0.74152       -0.54945       -0.88791
H          2.14478       -0.02319        0.05035
H          0.69379       -1.42618        1.37903
H          0.50777       -0.12706        3.40319
H          1.98371        0.20828        2.53163
H          1.47048        2.33190        3.13719
H          0.64095        2.33362        1.58869
H         -0.79099        3.18277        3.19472
H         -1.37309        1.68789        2.87933
H         -1.37769        1.53769        0.20826
H         -3.82008        1.38161        0.00129
H         -5.01880       -0.63174        0.73904
H         -1.28033       -2.39211        1.96823
H         -2.65093       -3.82861        3.37539
H         -5.81275       -3.04494        0.54148
H         -5.36372       -6.05196        4.10911
H         -4.32053       -6.85273        2.88410
H         -3.58205       -5.95001        4.24259

--Link1--
%chk=JID_7889.chk
%mem=8GB
%nprocshared=4
# B3LYP/6-311++G(d,p) empiricaldispersion=gd3bj scf=xqc pop=npa geom=check

CID_82542916_JID_7889_Energie_neutraal

0 1

--Link1--
%chk=JID_7889.chk
%mem=8GB
%nprocshared=4
# B3LYP/6-311++G(d,p) empiricaldispersion=gd3bj scf=xqc pop=npa geom=check

CID_82542916_JID_7889_Energie_kation

1 2

--Link1--
%chk=JID_7889.chk
%mem=8GB
%nprocshared=4
# B3LYP/6-311++G(d,p) empiricaldispersion=gd3bj scf=xqc pop=npa geom=check

CID_82542916_JID_7889_Energie_anion

-1 2
