%chk=JID_5770.chk
%mem=8GB
%nprocshared=4
# opt freq B3LYP/6-31G(d) empiricaldispersion=gd3bj scf=xqc

CID_105797289_JID_5770_neutraal

0 1
C          0.95492        0.05462       -0.07060
C          0.84414       -1.44427       -0.35703
C          1.81576       -2.23464        0.51753
C         -0.60278       -1.94754       -0.25159
C         -1.47834       -1.71276       -1.47479
C         -1.00992       -3.09960       -1.15995
C         -1.28218       -1.84307        1.10749
N         -0.88966       -2.97951        1.93664
C         -1.45060       -2.89093        3.29488
C         -2.96807       -3.10276        3.27721
O         -3.46324       -4.16138        2.88252
N         -3.80458       -2.08975        3.64737
C         -3.47410       -0.78851        4.21373
C         -4.61647        0.19257        3.96381
C         -3.18691       -0.90890        5.70809
H          0.76061        0.28617        0.98126
H          0.24307        0.62444       -0.67689
H          1.96192        0.41618       -0.30553
H          1.17508       -1.58827       -1.39527
H          1.65060       -2.04565        1.58292
H          1.71657       -3.31092        0.34210
H          2.85001       -1.95203        0.29258
H         -2.53136       -1.49281       -1.33655
H         -1.04881       -1.21964       -2.34034
H         -0.25634       -3.54394       -1.80088
H         -1.74965       -3.81111       -0.80913
H         -1.01179       -0.90007        1.59215
H         -2.37071       -1.83103        0.97554
H         -1.24604       -3.83678        1.50822
H         -1.02673       -3.69857        3.90279
H         -1.14820       -1.95996        3.77681
H         -4.77857       -2.37149        3.63181
H         -2.58271       -0.40665        3.70638
H         -5.54325       -0.14385        4.44190
H         -4.37145        1.18604        4.35347
H         -4.81521        0.28885        2.89067
H         -2.35578       -1.59574        5.89864
H         -2.92328        0.06478        6.13401
H         -4.05925       -1.29333        6.24847

--Link1--
%chk=JID_5770.chk
%mem=8GB
%nprocshared=4
# B3LYP/6-311++G(d,p) empiricaldispersion=gd3bj scf=xqc pop=npa geom=check

CID_105797289_JID_5770_Energie_neutraal

0 1

--Link1--
%chk=JID_5770.chk
%mem=8GB
%nprocshared=4
# B3LYP/6-311++G(d,p) empiricaldispersion=gd3bj scf=xqc pop=npa geom=check

CID_105797289_JID_5770_Energie_kation

1 2

--Link1--
%chk=JID_5770.chk
%mem=8GB
%nprocshared=4
# B3LYP/6-311++G(d,p) empiricaldispersion=gd3bj scf=xqc pop=npa geom=check

CID_105797289_JID_5770_Energie_anion

-1 2
