%chk=JID_10399.chk
%mem=8GB
%nprocshared=4
# opt freq B3LYP/6-31G(d) empiricaldispersion=gd3bj scf=xqc

CID_107264599_JID_10399_neutraal

0 1
C         -0.05400        1.12600       -0.28100
C         -0.94477        0.11640        0.40791
O         -2.03831        0.39576        0.88787
N         -0.37946       -1.14600        0.47414
C          0.79745       -1.36058       -0.32199
S          1.44863        0.24884       -0.76933
C         -1.18717       -2.28964        0.87371
C         -1.74407       -2.31521        2.30776
O         -2.71768       -3.01745        2.59693
N         -1.09250       -1.66349        3.33143
C          0.31451       -1.66152        3.42428
C          0.99403       -0.44201        3.37227
C          2.37606       -0.39392        3.49451
C          3.08725       -1.57857        3.69936
C          2.41047       -2.80504        3.78817
C          1.01564       -2.84625        3.65267
C          3.20859       -4.02977        4.03810
O          4.41792       -4.08182        4.15611
O          2.44735       -5.13399        4.13061
O          0.31642        0.73149        3.19839
H          0.19179        1.93556        0.41010
H         -0.56326        1.51886       -1.16427
H          0.52092       -1.90938       -1.22745
H          1.52933       -1.93773        0.24964
H         -2.03912       -2.34203        0.18582
H         -0.58716       -3.19943        0.75520
H         -1.54493       -1.97979        4.18688
H          2.89649        0.55838        3.43967
H          4.17060       -1.54022        3.80361
H          0.48305       -3.79049        3.73401
H          3.09177       -5.85087        4.31336
H         -0.63165        0.49859        3.12354

--Link1--
%chk=JID_10399.chk
%mem=8GB
%nprocshared=4
# B3LYP/6-311++G(d,p) empiricaldispersion=gd3bj scf=xqc pop=npa geom=check

CID_107264599_JID_10399_Energie_neutraal

0 1

--Link1--
%chk=JID_10399.chk
%mem=8GB
%nprocshared=4
# B3LYP/6-311++G(d,p) empiricaldispersion=gd3bj scf=xqc pop=npa geom=check

CID_107264599_JID_10399_Energie_kation

1 2

--Link1--
%chk=JID_10399.chk
%mem=8GB
%nprocshared=4
# B3LYP/6-311++G(d,p) empiricaldispersion=gd3bj scf=xqc pop=npa geom=check

CID_107264599_JID_10399_Energie_anion

-1 2
