%chk=JID_2374.chk
%mem=8GB
%nprocshared=4
# opt freq B3LYP/6-31G(d) empiricaldispersion=gd3bj scf=xqc

CID_63363556_JID_2374_neutraal

0 1
C          0.78100       -1.26600       -0.21900
C          1.24648        0.01718        0.46255
C          0.45755        1.23166       -0.05541
C         -1.05227        0.93010        0.02688
O         -1.38686       -0.27800       -0.66197
C         -0.72877       -1.41503       -0.10679
N          0.90031        2.41096        0.70006
C          0.40098        3.68947        0.18654
C         -0.79846        4.24662        0.94727
C         -0.40204        4.77089        2.29537
O         -0.21642        5.93848        2.59219
O         -0.25699        3.79316        3.21258
H          1.06248       -1.22295       -1.27828
H          1.28266       -2.13329        0.22286
H          1.11041       -0.08800        1.54734
H          2.32052        0.15526        0.28708
H          0.72948        1.35545       -1.11249
H         -1.39068        0.85483        1.06772
H         -1.62575        1.73063       -0.45037
H         -1.05881       -2.29704       -0.66464
H         -1.04181       -1.54590        0.93573
H          0.67344        2.31035        1.69268
H          1.22663        4.40820        0.25561
H          0.15733        3.61278       -0.87995
H         -1.22704        5.08643        0.38705
H         -1.60571        3.51778        1.06760
H          0.00304        4.27493        4.02716

--Link1--
%chk=JID_2374.chk
%mem=8GB
%nprocshared=4
# B3LYP/6-311++G(d,p) empiricaldispersion=gd3bj scf=xqc pop=npa geom=check

CID_63363556_JID_2374_Energie_neutraal

0 1

--Link1--
%chk=JID_2374.chk
%mem=8GB
%nprocshared=4
# B3LYP/6-311++G(d,p) empiricaldispersion=gd3bj scf=xqc pop=npa geom=check

CID_63363556_JID_2374_Energie_kation

1 2

--Link1--
%chk=JID_2374.chk
%mem=8GB
%nprocshared=4
# B3LYP/6-311++G(d,p) empiricaldispersion=gd3bj scf=xqc pop=npa geom=check

CID_63363556_JID_2374_Energie_anion

-1 2
