%chk=JID_4110.chk
%mem=8GB
%nprocshared=4
# opt freq B3LYP/6-31G(d) empiricaldispersion=gd3bj scf=xqc

CID_134126543_JID_4110_neutraal

0 1
C          0.96998        0.00076       -0.09538
C          0.45439       -0.62093       -1.37022
C         -0.12385       -1.83846       -1.28479
C         -0.67837       -2.59852       -2.41046
C         -2.06002       -2.78865       -2.50860
C         -2.59527       -3.51225       -3.57625
C         -1.75209       -4.05110       -4.54774
C         -0.37304       -3.86849       -4.45334
C          0.16327       -3.14557       -3.38650
N          0.52669        0.10119       -2.56029
C          1.54307        1.05036       -3.03451
C          2.91929        0.37497       -3.08198
C          1.14694        1.45047       -4.47198
C          1.58126        2.32748       -2.18888
H          0.75640       -0.61763        0.78401
H          0.49080        0.96941        0.07856
H          2.05450        0.13245       -0.13231
H         -0.20416       -2.34665       -0.32680
H         -2.72626       -2.36682       -1.75994
H         -3.67031       -3.65370       -3.64987
H         -2.17027       -4.61427       -5.37803
H          0.28503       -4.28998       -5.20846
H          1.24006       -3.00838       -3.31789
H          0.10873       -0.42452       -3.32900
H          2.89114       -0.53782       -3.68860
H          3.67210        1.04302       -3.51535
H          3.26945        0.09021       -2.08503
H          0.15598        1.91934       -4.49163
H          1.86395        2.15863       -4.90239
H          1.10639        0.57591       -5.13229
H          0.57418        2.72848       -2.02800
H          2.03806        2.16493       -1.20933
H          2.17691        3.10612       -2.67988

--Link1--
%chk=JID_4110.chk
%mem=8GB
%nprocshared=4
# B3LYP/6-311++G(d,p) empiricaldispersion=gd3bj scf=xqc pop=npa geom=check

CID_134126543_JID_4110_Energie_neutraal

0 1

--Link1--
%chk=JID_4110.chk
%mem=8GB
%nprocshared=4
# B3LYP/6-311++G(d,p) empiricaldispersion=gd3bj scf=xqc pop=npa geom=check

CID_134126543_JID_4110_Energie_kation

1 2

--Link1--
%chk=JID_4110.chk
%mem=8GB
%nprocshared=4
# B3LYP/6-311++G(d,p) empiricaldispersion=gd3bj scf=xqc pop=npa geom=check

CID_134126543_JID_4110_Energie_anion

-1 2
