%chk=JID_7216.chk
%mem=8GB
%nprocshared=4
# opt freq B3LYP/6-31G(d) empiricaldispersion=gd3bj scf=xqc

CID_110370206_JID_7216_neutraal

0 1
C          2.22400        0.03500        0.00200
C          0.75534       -0.05367        0.01295
C         -0.17405       -0.70270       -0.75970
C         -1.42349       -0.30763       -0.22550
N         -1.24972        0.48594        0.83544
O          0.11289        0.65399        0.97694
N         -2.63094       -0.72133       -0.74122
C         -3.89350       -0.33181       -0.40778
O         -4.83729       -0.96999       -0.88968
C         -4.16139        0.81735        0.56451
N         -3.48076        2.05515        0.21958
C         -3.83701        3.03332       -0.65452
O         -3.12159        4.02837       -0.76310
C         -5.06397        2.84955       -1.52424
C         -4.72383        2.12985       -2.83866
C         -6.00075        1.62253       -3.50867
C         -3.96078        3.04458       -3.80048
H          2.54463        1.06520       -0.18066
H          2.63630       -0.28988        0.96220
H          2.65024       -0.59815       -0.78229
H          0.02284       -1.34062       -1.60777
H         -2.60164       -1.43397       -1.45701
H         -5.23876        1.00085        0.60318
H         -3.84406        0.51650        1.56791
H         -2.58038        2.20974        0.66608
H         -5.82989        2.30208       -0.96769
H         -5.49197        3.84061       -1.71982
H         -4.08372        1.26514       -2.63387
H         -6.67908        2.44835       -3.74821
H         -5.76800        1.09355       -4.43903
H         -6.53212        0.92403       -2.85370
H         -3.00168        3.35567       -3.37493
H         -3.74706        2.52535       -4.74103
H         -4.53741        3.94542       -4.03585

--Link1--
%chk=JID_7216.chk
%mem=8GB
%nprocshared=4
# B3LYP/6-311++G(d,p) empiricaldispersion=gd3bj scf=xqc pop=npa geom=check

CID_110370206_JID_7216_Energie_neutraal

0 1

--Link1--
%chk=JID_7216.chk
%mem=8GB
%nprocshared=4
# B3LYP/6-311++G(d,p) empiricaldispersion=gd3bj scf=xqc pop=npa geom=check

CID_110370206_JID_7216_Energie_kation

1 2

--Link1--
%chk=JID_7216.chk
%mem=8GB
%nprocshared=4
# B3LYP/6-311++G(d,p) empiricaldispersion=gd3bj scf=xqc pop=npa geom=check

CID_110370206_JID_7216_Energie_anion

-1 2
