%chk=JID_7733.chk
%mem=8GB
%nprocshared=4
# opt freq B3LYP/6-31G(d) empiricaldispersion=gd3bj scf=xqc

CID_146646235_JID_7733_neutraal

0 1
C          1.07079        0.07054       -0.00361
N          0.30845       -1.03216        0.59370
C         -0.77974       -0.58239        1.47201
C          0.85718       -2.32198        0.71568
C          2.16156       -2.61058        0.55899
C          2.69128       -3.98721        0.70566
O          3.89267       -4.18547        0.53281
N          1.76862       -4.97927        1.03297
C          2.27978       -6.35204        1.07056
C          1.29616       -7.39344        1.61308
C         -0.04634       -7.15591        0.92046
C         -0.57195       -5.82787        1.46203
C          0.40771       -4.69946        1.15990
C         -0.03190       -3.43775        1.00203
C         -0.82692       -5.94690        2.98883
N         -0.19325       -7.11884        3.60986
C          1.18671       -7.27639        3.15164
H          0.40621        0.87952       -0.32638
H          1.61126       -0.26161       -0.89683
H          1.78707        0.47653        0.71837
H         -1.69363       -1.15855        1.29997
H         -0.48494       -0.68162        2.52242
H         -1.03658        0.46844        1.29773
H          2.90945       -1.86212        0.33908
H          3.21473       -6.36993        1.64498
H          2.54886       -6.61009        0.03728
H          1.66225       -8.39566        1.35897
H         -0.74799       -7.97177        1.13385
H          0.07385       -7.12010       -0.16976
H         -1.52864       -5.61441        0.96663
H         -1.09483       -3.23580        1.06386
H         -1.90696       -6.04088        3.15390
H         -0.51583       -5.03756        3.51816
H         -0.21421       -7.02098        4.62464
H          1.79952       -6.45564        3.54467
H          1.59055       -8.19237        3.59891

--Link1--
%chk=JID_7733.chk
%mem=8GB
%nprocshared=4
# B3LYP/6-311++G(d,p) empiricaldispersion=gd3bj scf=xqc pop=npa geom=check

CID_146646235_JID_7733_Energie_neutraal

0 1

--Link1--
%chk=JID_7733.chk
%mem=8GB
%nprocshared=4
# B3LYP/6-311++G(d,p) empiricaldispersion=gd3bj scf=xqc pop=npa geom=check

CID_146646235_JID_7733_Energie_kation

1 2

--Link1--
%chk=JID_7733.chk
%mem=8GB
%nprocshared=4
# B3LYP/6-311++G(d,p) empiricaldispersion=gd3bj scf=xqc pop=npa geom=check

CID_146646235_JID_7733_Energie_anion

-1 2
