%chk=JID_10982.chk
%mem=8GB
%nprocshared=4
# opt freq B3LYP/6-31G(d) empiricaldispersion=gd3bj scf=xqc

CID_129660285_JID_10982_neutraal

0 1
C          0.98186        0.04129        0.08925
C          1.09021       -0.05299        1.60068
C          1.60197        1.23226        2.25685
C          0.74814        2.48586        2.02687
C         -0.74015        2.34756        2.36456
C         -1.03763        1.83819        3.77580
C         -0.65201        2.79298        4.90713
C         -1.51302        4.05787        5.00073
C         -2.99773        3.77923        5.23358
O         -3.14213        2.98693        6.42119
C         -4.33923        2.35216        6.56251
O         -5.22912        2.36289        5.72176
C         -4.42437        1.62285        7.90833
C         -3.87784        2.54620        9.02077
C         -5.90359        1.34801        8.24037
C         -3.58268        0.31937        7.89578
C         -4.04927       -0.80969        6.96226
C         -3.37021       -0.84936        5.59030
C         -1.87078       -1.16437        5.59758
C         -1.51621       -2.49011        6.25258
H          0.23464        0.77837       -0.21835
H          0.68431       -0.92622       -0.32779
H          1.94304        0.31875       -0.35507
H          0.11750       -0.33835        2.01502
H          1.78067       -0.86729        1.85166
H          1.70245        1.05614        3.33467
H          2.61708        1.43664        1.89365
H          1.17801        3.30824        2.61129
H          0.83662        2.79286        0.97753
H         -1.23087        3.31437        2.20388
H         -1.20385        1.65972        1.64728
H         -2.10305        1.59553        3.83795
H         -0.51608        0.89059        3.93830
H         -0.72262        2.24624        5.85577
H          0.39974        3.08430        4.80986
H         -1.13419        4.64941        5.84383
H         -1.39097        4.67183        4.10208
H         -3.52424        4.72786        5.38801
H         -3.43459        3.27952        4.36263
H         -4.36849        3.52630        8.99819
H         -4.04079        2.11000       10.01290
H         -2.80063        2.71804        8.91310
H         -6.41974        0.80838        7.44021
H         -6.00059        0.76126        9.16045
H         -6.45281        2.28667        8.38212
H         -2.53273        0.56243        7.69710
H         -3.59928       -0.08970        8.91601
H         -3.87169       -1.76723        7.46636
H         -5.13091       -0.76903        6.80806
H         -3.87518       -1.61313        4.98489
H         -3.53109        0.10149        5.07252
H         -1.52683       -1.19715        4.55675
H         -1.31072       -0.35973        6.08453
H         -2.09358       -3.31187        5.81771
H         -0.45336       -2.70826        6.10489
H         -1.69946       -2.46616        7.33067

--Link1--
%chk=JID_10982.chk
%mem=8GB
%nprocshared=4
# B3LYP/6-311++G(d,p) empiricaldispersion=gd3bj scf=xqc pop=npa geom=check

CID_129660285_JID_10982_Energie_neutraal

0 1

--Link1--
%chk=JID_10982.chk
%mem=8GB
%nprocshared=4
# B3LYP/6-311++G(d,p) empiricaldispersion=gd3bj scf=xqc pop=npa geom=check

CID_129660285_JID_10982_Energie_kation

1 2

--Link1--
%chk=JID_10982.chk
%mem=8GB
%nprocshared=4
# B3LYP/6-311++G(d,p) empiricaldispersion=gd3bj scf=xqc pop=npa geom=check

CID_129660285_JID_10982_Energie_anion

-1 2
