%chk=JID_10912.chk
%mem=8GB
%nprocshared=4
# opt freq B3LYP/6-31G(d) empiricaldispersion=gd3bj scf=xqc

CID_79637148_JID_10912_neutraal

0 1
C          0.98223        0.09810       -0.00783
C          0.19402        1.03808       -0.91049
N          0.99992        1.40347       -2.05948
C          0.50375        2.44705       -2.97936
C         -0.40631        3.53600       -2.35711
C          0.32819        4.49663       -1.42660
C          1.51714        5.14429       -2.12619
C          2.51317        4.11410       -2.68241
C          1.72011        3.16744       -3.63874
N          3.36986        3.39577       -1.72999
C          3.77157        3.66889       -0.43803
C          4.54430        2.58563       -0.03517
C          4.64390        1.76454       -1.17876
N          3.94114        2.26024       -2.19426
C          5.39294        0.49480       -1.34916
C          5.16501        2.35667        1.29412
C          3.44878        4.88937        0.34332
C         -0.36557        1.72558       -4.04704
O         -1.45247        1.19570       -3.85509
O          0.15587        1.70869       -5.29089
H          1.28374       -0.80772       -0.54473
H          0.36862       -0.20573        0.84647
H          1.88334        0.58322        0.38209
H         -0.72701        0.54210       -1.23336
H         -0.07983        1.90338       -0.30264
H          1.99552        1.49702       -1.84476
H         -0.85804        4.12537       -3.16869
H         -1.26034        3.09172       -1.83096
H          0.65733        3.97451       -0.52455
H         -0.36684        5.27848       -1.09884
H          1.99420        5.87611       -1.47393
H          1.13250        5.73636       -2.96881
H          3.23844        4.66450       -3.29858
H          2.38688        2.43565       -4.11414
H          1.35173        3.78608       -4.47095
H          6.41496        0.59637       -0.97017
H          4.89823       -0.31446       -0.80329
H          5.45748        0.20513       -2.40351
H          5.92339        3.11823        1.49985
H          4.40520        2.39942        2.08143
H          5.64592        1.37533        1.35234
H          2.38909        4.92877        0.60483
H          4.00423        4.90876        1.28723
H          3.73426        5.79186       -0.20414
H         -0.48628        1.16717       -5.79470

--Link1--
%chk=JID_10912.chk
%mem=8GB
%nprocshared=4
# B3LYP/6-311++G(d,p) empiricaldispersion=gd3bj scf=xqc pop=npa geom=check

CID_79637148_JID_10912_Energie_neutraal

0 1

--Link1--
%chk=JID_10912.chk
%mem=8GB
%nprocshared=4
# B3LYP/6-311++G(d,p) empiricaldispersion=gd3bj scf=xqc pop=npa geom=check

CID_79637148_JID_10912_Energie_kation

1 2

--Link1--
%chk=JID_10912.chk
%mem=8GB
%nprocshared=4
# B3LYP/6-311++G(d,p) empiricaldispersion=gd3bj scf=xqc pop=npa geom=check

CID_79637148_JID_10912_Energie_anion

-1 2
