%chk=JID_10073.chk
%mem=8GB
%nprocshared=4
# opt freq B3LYP/6-31G(d) empiricaldispersion=gd3bj scf=xqc

CID_19437444_JID_10073_neutraal

0 1
C          0.00700       -1.02800       -0.02500
C          1.06502       -0.11094       -0.04920
C          0.83103        1.22251        0.34691
C         -0.44140        1.58684        0.80520
C         -1.49200        0.65416        0.84567
C         -1.24266       -0.68606        0.50299
N         -2.25572       -1.66985        0.48997
S         -3.08190        1.24275        1.42992
C         -4.20124        0.93886        0.00215
C         -3.70966        1.44148       -1.35095
C         -3.04371        0.35265       -2.14325
O         -3.28024       -0.84362       -2.08174
O         -2.14171        0.81611       -3.03522
S          2.21852        2.36814        0.40969
C          1.54945        3.89944       -0.34140
C          1.37124        3.80163       -1.84992
C         -0.00207        3.31695       -2.19631
O         -1.04554        3.71901       -1.70780
O          0.00080        2.37377       -3.15305
N          2.27799       -0.49130       -0.66370
H          0.16580       -2.04337       -0.38044
H         -0.62538        2.60219        1.14724
H         -2.64397       -1.77246       -0.45384
H         -3.00625       -1.41958        1.13183
H         -4.48001       -0.11839       -0.01652
H         -5.11738        1.48623        0.25244
H         -4.56856        1.76631       -1.95032
H         -3.04345        2.29872       -1.23831
H         -1.81737       -0.01375       -3.45823
H          0.64150        4.21780        0.17854
H          2.30493        4.66727       -0.13984
H          1.46694        4.79631       -2.30149
H          2.13488        3.16565       -2.31124
H         -0.93783        2.07097       -3.20214
H          2.51048       -1.46920       -0.52049
H          3.03718        0.13124       -0.38716

--Link1--
%chk=JID_10073.chk
%mem=8GB
%nprocshared=4
# B3LYP/6-311++G(d,p) empiricaldispersion=gd3bj scf=xqc pop=npa geom=check

CID_19437444_JID_10073_Energie_neutraal

0 1

--Link1--
%chk=JID_10073.chk
%mem=8GB
%nprocshared=4
# B3LYP/6-311++G(d,p) empiricaldispersion=gd3bj scf=xqc pop=npa geom=check

CID_19437444_JID_10073_Energie_kation

1 2

--Link1--
%chk=JID_10073.chk
%mem=8GB
%nprocshared=4
# B3LYP/6-311++G(d,p) empiricaldispersion=gd3bj scf=xqc pop=npa geom=check

CID_19437444_JID_10073_Energie_anion

-1 2
