%chk=JID_7068.chk
%mem=8GB
%nprocshared=4
# opt freq B3LYP/6-31G(d) empiricaldispersion=gd3bj scf=xqc

CID_122695050_JID_7068_neutraal

0 1
C          1.02130       -0.09769        0.00147
C          0.42249       -1.39614       -0.54725
C          0.83964       -2.53623        0.40516
C         -1.10973       -1.29369       -0.54668
N          0.88613       -1.77594       -1.89898
C          0.94934       -1.09257       -3.07553
O          0.79201       -1.74338       -4.11349
C          1.28583        0.38155       -3.13349
C          0.11462        1.33680       -3.15543
C          0.27850        2.62662       -2.62110
C         -0.78036        3.54518       -2.65284
C         -2.00594        3.19796       -3.23041
C         -2.16177        1.92950       -3.78867
C         -1.10737        1.01145       -3.76177
N         -0.59927        4.88255       -2.07478
O          0.49877        5.14441       -1.56101
O         -1.55423        5.66969       -2.12857
H          0.79788        0.01742        1.06908
H          0.61090        0.78617       -0.48748
H          2.11096       -0.08340       -0.10913
H          0.49974       -2.35049        1.43021
H          0.42137       -3.49768        0.08473
H          1.93038       -2.64814        0.42654
H         -1.45821       -0.49425       -1.20705
H         -1.56719       -2.22654       -0.89673
H         -1.49456       -1.08843        0.45850
H          0.69625       -2.74746       -2.12398
H          1.98062        0.62022       -2.32337
H          1.86016        0.54114       -4.05624
H          1.23475        2.90461       -2.17905
H         -2.83699        3.89909       -3.26268
H         -3.10548        1.65314       -4.25454
H         -1.25525        0.03583       -4.22485

--Link1--
%chk=JID_7068.chk
%mem=8GB
%nprocshared=4
# B3LYP/6-311++G(d,p) empiricaldispersion=gd3bj scf=xqc pop=npa geom=check

CID_122695050_JID_7068_Energie_neutraal

0 1

--Link1--
%chk=JID_7068.chk
%mem=8GB
%nprocshared=4
# B3LYP/6-311++G(d,p) empiricaldispersion=gd3bj scf=xqc pop=npa geom=check

CID_122695050_JID_7068_Energie_kation

1 2

--Link1--
%chk=JID_7068.chk
%mem=8GB
%nprocshared=4
# B3LYP/6-311++G(d,p) empiricaldispersion=gd3bj scf=xqc pop=npa geom=check

CID_122695050_JID_7068_Energie_anion

-1 2
