%chk=JID_6930.chk
%mem=8GB
%nprocshared=4
# opt freq B3LYP/6-31G(d) empiricaldispersion=gd3bj scf=xqc

CID_59634387_JID_6930_neutraal

0 1
C          0.92865        0.04566       -0.05314
C          0.53462       -0.49457        1.28536
N          0.78115       -1.79032        1.52959
C          0.42014       -2.19773        2.75329
C         -0.13682       -1.39823        3.72421
C         -0.35643       -2.20416        4.94349
O         -0.13132       -3.57744        4.54646
C          0.57797       -3.59815        3.27892
C          2.04239       -3.94082        3.54151
C         -0.08956       -4.63450        2.38128
C         -0.34373       -0.07436        3.41312
N         -0.00723        0.36994        2.17480
C         -0.97977        0.95171        4.35678
C         -2.48877        0.67005        4.47898
C         -0.33186        0.94141        5.75459
C         -0.81738        2.38975        3.80250
H          0.38814        0.97126       -0.27353
H          0.69999       -0.68043       -0.83916
H          2.00231        0.25427       -0.06491
H          0.36922       -1.96253        5.72531
H         -1.37493       -2.13274        5.32981
H          2.13133       -4.92624        4.01266
H          2.62930       -3.94330        2.61673
H          2.50139       -3.22422        4.23299
H         -1.15197       -4.40452        2.23689
H          0.38447       -4.68419        1.39519
H         -0.04648       -5.62985        2.83782
H         -2.69025       -0.31010        4.92217
H         -2.98024        1.41893        5.11088
H         -2.97717        0.69003        3.49741
H          0.75983        1.01372        5.68767
H         -0.68482        1.78536        6.35939
H         -0.57628        0.03887        6.32079
H          0.24005        2.65125        3.67604
H         -1.31082        2.50909        2.83046
H         -1.26151        3.12886        4.47983

--Link1--
%chk=JID_6930.chk
%mem=8GB
%nprocshared=4
# B3LYP/6-311++G(d,p) empiricaldispersion=gd3bj scf=xqc pop=npa geom=check

CID_59634387_JID_6930_Energie_neutraal

0 1

--Link1--
%chk=JID_6930.chk
%mem=8GB
%nprocshared=4
# B3LYP/6-311++G(d,p) empiricaldispersion=gd3bj scf=xqc pop=npa geom=check

CID_59634387_JID_6930_Energie_kation

1 2

--Link1--
%chk=JID_6930.chk
%mem=8GB
%nprocshared=4
# B3LYP/6-311++G(d,p) empiricaldispersion=gd3bj scf=xqc pop=npa geom=check

CID_59634387_JID_6930_Energie_anion

-1 2
