%chk=JID_6171.chk
%mem=8GB
%nprocshared=4
# opt freq B3LYP/6-31G(d) empiricaldispersion=gd3bj scf=xqc

CID_63310731_JID_6171_neutraal

0 1
C          1.07296        0.00864       -0.06784
N          0.56734       -1.34007       -0.31168
C         -0.89118       -1.35408       -0.51647
C         -1.51672       -0.40567       -1.55464
C         -1.30034       -0.75996       -3.02404
N         -1.75413       -2.08360       -3.40116
C         -1.06254       -3.00925       -4.12838
C         -1.89830       -4.09680       -4.23767
C         -3.07322       -3.71893       -3.56173
N         -2.99461       -2.48726       -3.07215
N         -4.15180       -4.49797       -3.43656
C          1.37787       -2.14404       -1.25336
C          1.04385       -3.64823       -1.19989
C          1.58476       -4.18852        0.11578
S          3.19825       -3.38321        0.31386
C          2.90489       -2.14847       -0.98777
H          0.39221        0.57605        0.57792
H          1.20984        0.56870       -0.99902
H          2.02338       -0.01497        0.47328
H         -1.26377       -2.37037       -0.66895
H         -1.32886       -1.07351        0.45244
H         -2.59774       -0.38018       -1.36047
H         -1.17474        0.62216       -1.38695
H         -1.86222       -0.05923       -3.65377
H         -0.24906       -0.66009       -3.30597
H         -0.06113       -2.82841       -4.49100
H         -1.68640       -5.03089       -4.73585
H         -4.31051       -5.27248       -4.06731
H         -4.99981       -4.04381       -3.11648
H          1.22723       -1.76630       -2.26748
H          1.53467       -4.15961       -2.04047
H         -0.01962       -3.87443       -1.30432
H          0.93969       -3.91880        0.95734
H          1.69425       -5.27611        0.09142
H          3.43321       -2.48630       -1.88718
H          3.32939       -1.17884       -0.72159

--Link1--
%chk=JID_6171.chk
%mem=8GB
%nprocshared=4
# B3LYP/6-311++G(d,p) empiricaldispersion=gd3bj scf=xqc pop=npa geom=check

CID_63310731_JID_6171_Energie_neutraal

0 1

--Link1--
%chk=JID_6171.chk
%mem=8GB
%nprocshared=4
# B3LYP/6-311++G(d,p) empiricaldispersion=gd3bj scf=xqc pop=npa geom=check

CID_63310731_JID_6171_Energie_kation

1 2

--Link1--
%chk=JID_6171.chk
%mem=8GB
%nprocshared=4
# B3LYP/6-311++G(d,p) empiricaldispersion=gd3bj scf=xqc pop=npa geom=check

CID_63310731_JID_6171_Energie_anion

-1 2
