%chk=JID_6500.chk
%mem=8GB
%nprocshared=4
# opt freq B3LYP/6-31G(d) empiricaldispersion=gd3bj scf=xqc

CID_61570254_JID_6500_neutraal

0 1
C          0.94212       -0.04553       -0.06765
N          0.52701        1.25286        0.43954
C         -0.87407        1.28518        0.88361
C         -1.30939        0.43348        2.12978
C         -0.36491        0.76151        3.31276
C         -0.75010        0.02005        4.58503
C         -0.81644       -1.47169        4.30381
C         -1.77525       -1.75529        3.15098
N         -1.40668       -1.02817        1.92699
C         -2.20322       -1.49357        0.77060
C         -3.76180       -1.51511        0.76635
C         -4.45282       -0.14800        0.88767
C         -5.14568        0.04352        2.22994
C         -6.08044       -1.11955        2.55211
C         -5.66313       -2.41601        1.86910
O         -4.24823       -2.46712        1.72656
H          0.29732       -0.38228       -0.88480
H          0.97272       -0.80653        0.71634
H          1.95544        0.03891       -0.47362
H          1.13737        1.51262        1.21223
H         -1.07780        2.33399        1.13953
H         -1.52815        1.09279        0.02687
H         -2.30025        0.80325        2.41623
H         -0.37600        1.84030        3.51003
H          0.66872        0.49188        3.06330
H         -0.01735        0.22182        5.37398
H         -1.72221        0.37789        4.94506
H          0.18365       -1.85073        4.05857
H         -1.14994       -2.00332        5.20215
H         -1.75944       -2.83591        2.96375
H         -2.78656       -1.49016        3.47608
H         -1.87585       -0.97579       -0.13567
H         -1.88687       -2.53358        0.60370
H         -4.03279       -1.92034       -0.21927
H         -5.22625       -0.09168        0.10868
H         -3.77297        0.67818        0.66576
H         -4.39493        0.12681        3.02271
H         -5.70607        0.98518        2.23911
H         -6.08906       -1.26240        3.63969
H         -7.11155       -0.87888        2.26851
H         -5.98202       -3.27473        2.46860
H         -6.13538       -2.51579        0.88422

--Link1--
%chk=JID_6500.chk
%mem=8GB
%nprocshared=4
# B3LYP/6-311++G(d,p) empiricaldispersion=gd3bj scf=xqc pop=npa geom=check

CID_61570254_JID_6500_Energie_neutraal

0 1

--Link1--
%chk=JID_6500.chk
%mem=8GB
%nprocshared=4
# B3LYP/6-311++G(d,p) empiricaldispersion=gd3bj scf=xqc pop=npa geom=check

CID_61570254_JID_6500_Energie_kation

1 2

--Link1--
%chk=JID_6500.chk
%mem=8GB
%nprocshared=4
# B3LYP/6-311++G(d,p) empiricaldispersion=gd3bj scf=xqc pop=npa geom=check

CID_61570254_JID_6500_Energie_anion

-1 2
