%chk=JID_3446.chk
%mem=8GB
%nprocshared=4
# opt freq B3LYP/6-31G(d) empiricaldispersion=gd3bj scf=xqc

CID_104829962_JID_3446_neutraal

0 1
C          0.93353       -0.02470       -0.07051
C          0.50072       -0.50560        1.31882
C          0.96274        0.40864        2.50315
C          0.42479        1.84671        2.38465
C          0.47203       -0.18912        3.84061
C          2.50351        0.46977        2.55918
N         -0.95490       -0.68209        1.31114
C         -1.68884       -1.83063        1.23268
O         -2.91201       -1.73954        1.12031
C         -1.00569       -3.16214        1.35560
C         -0.25294       -3.58262        0.13888
O          0.89273       -4.00685        0.12750
O         -0.96088       -3.51676       -1.00104
H          0.48833        0.94313       -0.32211
H          0.60531       -0.73379       -0.83927
H          2.02047        0.05983       -0.15151
H          0.96239       -1.48650        1.46866
H         -0.66941        1.87030        2.36089
H          0.74316        2.45411        3.24018
H          0.79412        2.34438        1.48231
H          0.81933       -1.22138        3.96198
H          0.84624        0.38862        4.69370
H         -0.62131       -0.19148        3.90712
H          2.93755       -0.53550        2.60031
H          2.92289        0.98452        1.68890
H          2.84509        1.01363        3.44768
H         -1.52982        0.14630        1.20192
H         -0.32916       -3.14171        2.21665
H         -1.75747       -3.92967        1.57229
H         -0.35947       -3.86251       -1.69331

--Link1--
%chk=JID_3446.chk
%mem=8GB
%nprocshared=4
# B3LYP/6-311++G(d,p) empiricaldispersion=gd3bj scf=xqc pop=npa geom=check

CID_104829962_JID_3446_Energie_neutraal

0 1

--Link1--
%chk=JID_3446.chk
%mem=8GB
%nprocshared=4
# B3LYP/6-311++G(d,p) empiricaldispersion=gd3bj scf=xqc pop=npa geom=check

CID_104829962_JID_3446_Energie_kation

1 2

--Link1--
%chk=JID_3446.chk
%mem=8GB
%nprocshared=4
# B3LYP/6-311++G(d,p) empiricaldispersion=gd3bj scf=xqc pop=npa geom=check

CID_104829962_JID_3446_Energie_anion

-1 2
