%chk=JID_8701.chk
%mem=8GB
%nprocshared=4
# opt freq B3LYP/6-31G(d) empiricaldispersion=gd3bj scf=xqc

CID_65928084_JID_8701_neutraal

0 1
C          0.99462       -0.09977       -0.00422
C          0.67769        1.22735       -0.67126
C          1.23943        1.40198       -2.08284
C          0.61441        0.56401       -3.20616
C          1.01447       -0.93607       -3.27374
N         -0.38256       -1.20318       -3.63889
C         -0.85674        0.06650       -3.07876
C         -0.97744       -2.45109       -3.50985
O         -0.28213       -3.44757       -3.31096
C         -2.42323       -2.49986       -3.63451
C         -3.35522       -1.67361       -4.23882
C         -4.62717       -2.26398       -4.03870
C         -4.40737       -3.42943       -3.33665
O         -3.07582       -3.57331       -3.08567
C         -5.30691       -4.48860       -2.81440
S         -5.20103       -6.04813       -3.74676
C         -5.74875       -5.47475       -5.37178
O          0.87846        1.28519       -4.44997
H          0.39538       -0.91254       -0.42185
H          0.75881       -0.04548        1.06389
H          2.05487       -0.35202       -0.10206
H         -0.40305        1.40315       -0.65566
H          1.11654        2.01712       -0.04739
H          1.09652        2.46283       -2.33202
H          2.32533        1.24424       -2.07158
H          1.71594       -1.19359       -4.07285
H          1.32870       -1.42051       -2.34806
H         -1.27644       -0.04955       -2.07718
H         -1.56379        0.59802       -3.72008
H         -3.14462       -0.76266       -4.78028
H         -5.58523       -1.89322       -4.37645
H         -5.04836       -4.70376       -1.77213
H         -6.34737       -4.14674       -2.81989
H         -6.70678       -4.95418       -5.29439
H         -5.00249       -4.81687       -5.82374
H         -5.87897       -6.34016       -6.02733
H          0.57486        0.68429       -5.15451

--Link1--
%chk=JID_8701.chk
%mem=8GB
%nprocshared=4
# B3LYP/6-311++G(d,p) empiricaldispersion=gd3bj scf=xqc pop=npa geom=check

CID_65928084_JID_8701_Energie_neutraal

0 1

--Link1--
%chk=JID_8701.chk
%mem=8GB
%nprocshared=4
# B3LYP/6-311++G(d,p) empiricaldispersion=gd3bj scf=xqc pop=npa geom=check

CID_65928084_JID_8701_Energie_kation

1 2

--Link1--
%chk=JID_8701.chk
%mem=8GB
%nprocshared=4
# B3LYP/6-311++G(d,p) empiricaldispersion=gd3bj scf=xqc pop=npa geom=check

CID_65928084_JID_8701_Energie_anion

-1 2
