%chk=JID_10876.chk
%mem=8GB
%nprocshared=4
# opt freq B3LYP/6-31G(d) empiricaldispersion=gd3bj scf=xqc

CID_114484826_JID_10876_neutraal

0 1
C          2.49200        0.00400       -0.01400
C          1.00031        0.20440       -0.07608
C          0.09447       -0.88093       -0.15873
C         -1.27645       -0.59537       -0.28095
C         -1.75300        0.71699       -0.28665
C         -0.86435        1.78426       -0.17084
C          0.50791        1.52574       -0.08260
C         -1.41566        3.16586       -0.17763
O         -2.52630        3.41639       -0.62878
N         -0.65346        4.15389        0.38236
C          0.55487       -2.33731       -0.15664
N          0.22933       -3.15719        1.02875
C          0.57018       -2.45409        2.27301
C          0.53894       -3.37289        3.48666
C         -0.82184       -4.02530        3.61080
C         -1.16787       -4.74486        2.31524
C         -1.09898       -3.83124        1.06039
C         -1.41859       -4.69178       -0.23754
C         -2.47226       -5.79120       -0.04039
N         -1.90316       -3.86343       -1.35874
H          2.76823       -0.58765        0.86278
H          2.84534       -0.49268       -0.92322
H          3.02410        0.95848        0.06276
H         -1.99403       -1.40269       -0.38339
H         -2.82108        0.90010       -0.38375
H          1.21335        2.35177       -0.05142
H          0.13673        3.95938        0.97894
H         -1.09414        5.06103        0.46611
H          0.25442       -2.80563       -1.09644
H          1.64786       -2.36382       -0.23540
H         -0.11252       -1.61305        2.44778
H          1.58532       -2.04678        2.20820
H          0.76151       -2.79941        4.39355
H          1.31629       -4.14172        3.39390
H         -0.82419       -4.73446        4.44592
H         -1.58342       -3.26667        3.82854
H         -0.48816       -5.59796        2.18811
H         -2.17941       -5.14851        2.43551
H         -1.88552       -3.07442        1.17624
H         -0.49007       -5.18145       -0.55793
H         -3.40776       -5.38443        0.35946
H         -2.70348       -6.29191       -0.98846
H         -2.11237       -6.57322        0.63565
H         -1.98068       -4.43986       -2.19632
H         -2.84635       -3.53344       -1.15802

--Link1--
%chk=JID_10876.chk
%mem=8GB
%nprocshared=4
# B3LYP/6-311++G(d,p) empiricaldispersion=gd3bj scf=xqc pop=npa geom=check

CID_114484826_JID_10876_Energie_neutraal

0 1

--Link1--
%chk=JID_10876.chk
%mem=8GB
%nprocshared=4
# B3LYP/6-311++G(d,p) empiricaldispersion=gd3bj scf=xqc pop=npa geom=check

CID_114484826_JID_10876_Energie_kation

1 2

--Link1--
%chk=JID_10876.chk
%mem=8GB
%nprocshared=4
# B3LYP/6-311++G(d,p) empiricaldispersion=gd3bj scf=xqc pop=npa geom=check

CID_114484826_JID_10876_Energie_anion

-1 2
