%chk=JID_3845.chk
%mem=8GB
%nprocshared=4
# opt freq B3LYP/6-31G(d) empiricaldispersion=gd3bj scf=xqc

CID_124085461_JID_3845_neutraal

0 1
C          2.44200       -0.09800       -0.00700
C          0.96191       -0.15214        0.21721
N          0.22995        0.88850       -0.24157
C         -1.10932        0.86702       -0.07147
C         -1.75243       -0.19597        0.54641
C         -0.98897       -1.26053        1.02268
C          0.38929       -1.24201        0.85815
O         -1.71141        1.95964       -0.61428
C         -3.07135        2.26091       -0.30086
C         -3.98687        2.09849       -1.53798
C         -3.78956        0.75674       -2.24796
C         -5.45079        2.26993       -1.12603
O         -3.68559        3.14884       -2.46761
H          2.72776        0.83397       -0.50537
H          2.97216       -0.14847        0.94914
H          2.75917       -0.93351       -0.63874
H         -2.82640       -0.24557        0.65786
H         -1.46993       -2.10395        1.51020
H          1.00019       -2.06430        1.21490
H         -3.45224        1.70514        0.56117
H         -3.07654        3.31580        0.00201
H         -3.98922       -0.08665       -1.58019
H         -4.45963        0.67081       -3.11141
H         -2.77354        0.66243       -2.64636
H         -5.61303        3.25013       -0.66344
H         -6.11071        2.22765       -2.00020
H         -5.76370        1.49505       -0.41867
H         -4.10955        2.94020       -3.31693

--Link1--
%chk=JID_3845.chk
%mem=8GB
%nprocshared=4
# B3LYP/6-311++G(d,p) empiricaldispersion=gd3bj scf=xqc pop=npa geom=check

CID_124085461_JID_3845_Energie_neutraal

0 1

--Link1--
%chk=JID_3845.chk
%mem=8GB
%nprocshared=4
# B3LYP/6-311++G(d,p) empiricaldispersion=gd3bj scf=xqc pop=npa geom=check

CID_124085461_JID_3845_Energie_kation

1 2

--Link1--
%chk=JID_3845.chk
%mem=8GB
%nprocshared=4
# B3LYP/6-311++G(d,p) empiricaldispersion=gd3bj scf=xqc pop=npa geom=check

CID_124085461_JID_3845_Energie_anion

-1 2
