%chk=JID_3136.chk
%mem=8GB
%nprocshared=4
# opt freq B3LYP/6-31G(d) empiricaldispersion=gd3bj scf=xqc

CID_130651818_JID_3136_neutraal

0 1
C          0.98468       -0.06014       -0.07841
C          0.55390        0.05824        1.37968
N          1.31584        1.06529        2.12574
C          0.65588        1.38425        3.39000
C          2.74860        0.77043        2.29518
C          3.10995       -0.44406        3.12832
C          3.28230       -1.70113        2.53011
C          3.61691       -2.81865        3.30029
C          3.78845       -2.69272        4.67901
C          3.62831       -1.44689        5.28589
C          3.29366       -0.32985        4.51518
C          4.13001       -3.83688        5.46707
C          4.41639       -4.79769        6.12802
H          0.95339        0.91403       -0.57789
H          0.30408       -0.73084       -0.61351
H          1.99363       -0.46803       -0.18147
H         -0.50374        0.35289        1.36526
H          0.59021       -0.92369        1.86494
H          0.53996        0.50871        4.03777
H          1.20830        2.15618        3.93734
H         -0.34223        1.79720        3.20385
H          3.23198        0.68504        1.31393
H          3.23538        1.65029        2.73898
H          3.15810       -1.81982        1.45664
H          3.74312       -3.78418        2.81654
H          3.76321       -1.33667        6.35909
H          3.17635        0.63430        5.00507
H          4.67036       -5.65003        6.71392

--Link1--
%chk=JID_3136.chk
%mem=8GB
%nprocshared=4
# B3LYP/6-311++G(d,p) empiricaldispersion=gd3bj scf=xqc pop=npa geom=check

CID_130651818_JID_3136_Energie_neutraal

0 1

--Link1--
%chk=JID_3136.chk
%mem=8GB
%nprocshared=4
# B3LYP/6-311++G(d,p) empiricaldispersion=gd3bj scf=xqc pop=npa geom=check

CID_130651818_JID_3136_Energie_kation

1 2

--Link1--
%chk=JID_3136.chk
%mem=8GB
%nprocshared=4
# B3LYP/6-311++G(d,p) empiricaldispersion=gd3bj scf=xqc pop=npa geom=check

CID_130651818_JID_3136_Energie_anion

-1 2
