%chk=JID_6097.chk
%mem=8GB
%nprocshared=4
# opt freq B3LYP/6-31G(d) empiricaldispersion=gd3bj scf=xqc

CID_89529742_JID_6097_neutraal

0 1
C          1.02145        0.02198        0.09517
C         -0.37628        0.26344        0.65045
C         -0.44442        1.38565        1.66531
C         -0.61527        1.05244        3.02308
C         -0.71760        2.03159        4.03191
C         -0.61743        3.38382        3.66457
C         -0.41853        3.72195        2.32133
C         -0.35869        2.74303        1.31116
C         -0.14283        3.20518       -0.10444
O         -0.68511        4.30251        4.67934
C         -1.02268        5.64579        4.33894
O          0.08599        6.42139        3.88473
C          1.07407        6.56812        4.89539
C         -0.92764        1.61903        5.48503
C         -2.16406        0.73067        5.66235
C          0.31967        0.93778        6.05250
H          1.39012        0.87925       -0.47425
H          1.01487       -0.84399       -0.57459
H          1.73562       -0.17730        0.90126
H         -0.72957       -0.66860        1.11022
H         -1.07984        0.46363       -0.16563
H         -0.67375        0.00113        3.30064
H         -0.29211        4.76210        2.03156
H         -0.67198        2.57285       -0.82241
H         -0.52680        4.22142       -0.24685
H          0.92578        3.20670       -0.33914
H         -1.81527        5.67689        3.58109
H         -1.44408        6.11881        5.23400
H          0.65239        7.05660        5.77929
H          1.50123        5.59831        5.16733
H          1.87583        7.19841        4.50110
H         -1.10980        2.50947        6.09827
H         -2.04755       -0.24375        5.17669
H         -2.35324        0.54666        6.72578
H         -3.05469        1.21166        5.24282
H          1.19634        1.58860        5.96063
H          0.18325        0.70894        7.11519
H          0.54410       -0.00119        5.53518

--Link1--
%chk=JID_6097.chk
%mem=8GB
%nprocshared=4
# B3LYP/6-311++G(d,p) empiricaldispersion=gd3bj scf=xqc pop=npa geom=check

CID_89529742_JID_6097_Energie_neutraal

0 1

--Link1--
%chk=JID_6097.chk
%mem=8GB
%nprocshared=4
# B3LYP/6-311++G(d,p) empiricaldispersion=gd3bj scf=xqc pop=npa geom=check

CID_89529742_JID_6097_Energie_kation

1 2

--Link1--
%chk=JID_6097.chk
%mem=8GB
%nprocshared=4
# B3LYP/6-311++G(d,p) empiricaldispersion=gd3bj scf=xqc pop=npa geom=check

CID_89529742_JID_6097_Energie_anion

-1 2
