%chk=JID_8039.chk
%mem=8GB
%nprocshared=4
# opt freq B3LYP/6-31G(d) empiricaldispersion=gd3bj scf=xqc

CID_112507434_JID_8039_neutraal

0 1
C          2.54100        0.50500       -0.00100
C          1.12465        0.78210        0.29702
C          0.27558        1.83565        0.06745
C         -0.97098        1.42732        0.58285
N         -0.87217        0.21211        1.14274
O          0.43889       -0.19037        0.95659
C         -2.27301        2.13428        0.58125
S          0.66745        3.29906       -0.71732
O          0.78729        2.89551       -2.09846
O         -0.33583        4.24222       -0.27659
N          2.18824        3.82547       -0.12742
C          2.14620        4.16298        1.34350
C          3.54860        4.44228        1.87789
O          4.15929        5.51599        1.15867
C          4.30760        5.15589       -0.21946
C          2.94242        4.89221       -0.92369
C          3.27843        4.38688       -2.33684
C          2.14342        6.20103       -1.01924
H          2.81667        0.89108       -0.98701
H          3.18636        0.97560        0.74681
H          2.74213       -0.57089        0.00392
H         -2.25251        2.97614        1.28027
H         -2.50798        2.51237       -0.41872
H         -3.08967        1.46916        0.88182
H          1.51044        5.04046        1.50075
H          1.72521        3.32589        1.90844
H          4.18445        3.55110        1.81357
H          3.49341        4.73592        2.93087
H          4.95809        4.27324       -0.27991
H          4.83904        5.97886       -0.71120
H          2.41088        4.41187       -3.00231
H          4.03983        5.01851       -2.81002
H          3.66287        3.36110       -2.31260
H          1.90240        6.61523       -0.03574
H          2.71386        6.96423       -1.56142
H          1.20129        6.06180       -1.55904

--Link1--
%chk=JID_8039.chk
%mem=8GB
%nprocshared=4
# B3LYP/6-311++G(d,p) empiricaldispersion=gd3bj scf=xqc pop=npa geom=check

CID_112507434_JID_8039_Energie_neutraal

0 1

--Link1--
%chk=JID_8039.chk
%mem=8GB
%nprocshared=4
# B3LYP/6-311++G(d,p) empiricaldispersion=gd3bj scf=xqc pop=npa geom=check

CID_112507434_JID_8039_Energie_kation

1 2

--Link1--
%chk=JID_8039.chk
%mem=8GB
%nprocshared=4
# B3LYP/6-311++G(d,p) empiricaldispersion=gd3bj scf=xqc pop=npa geom=check

CID_112507434_JID_8039_Energie_anion

-1 2
