%chk=JID_4718.chk
%mem=8GB
%nprocshared=4
# opt freq B3LYP/6-31G(d) empiricaldispersion=gd3bj scf=xqc

CID_80496854_JID_4718_neutraal

0 1
C          1.02592        0.07947       -0.05488
C          0.54292       -1.28487        0.42174
C          1.07017       -1.66080        1.81015
N          0.49969       -0.80349        2.83787
C          1.05086       -1.01293        4.18655
C          2.57850       -0.79364        4.34656
C          3.12619        0.45980        3.71069
C          3.16744        1.76901        4.45372
C          4.44210        1.01845        4.19236
C          0.26488       -0.14965        5.14486
N         -0.04716        1.13638        4.89771
N         -0.74366        1.46280        5.99840
N         -0.89016        0.53104        6.95513
C         -0.25821       -0.50856        6.40509
H          0.62161        0.89043        0.55775
H          0.70062        0.25147       -1.08602
H          2.11868        0.13905       -0.03151
H         -0.55354       -1.30937        0.41206
H          0.88071       -2.04324       -0.29489
H          0.79427       -2.70129        2.01718
H          2.16332       -1.60907        1.78995
H          0.60205        0.18869        2.61962
H          0.84437       -2.05481        4.46918
H          2.83703       -0.81435        5.41383
H          3.10502       -1.64404        3.89491
H          2.95720        0.49254        2.64043
H          2.97485        2.67160        3.88418
H          2.79331        1.80399        5.47017
H          4.93315        0.55247        5.03893
H          5.12440        1.42060        3.45185
H         -1.14323        2.39082        6.10739
H         -0.20645       -1.45266        6.92909

--Link1--
%chk=JID_4718.chk
%mem=8GB
%nprocshared=4
# B3LYP/6-311++G(d,p) empiricaldispersion=gd3bj scf=xqc pop=npa geom=check

CID_80496854_JID_4718_Energie_neutraal

0 1

--Link1--
%chk=JID_4718.chk
%mem=8GB
%nprocshared=4
# B3LYP/6-311++G(d,p) empiricaldispersion=gd3bj scf=xqc pop=npa geom=check

CID_80496854_JID_4718_Energie_kation

1 2

--Link1--
%chk=JID_4718.chk
%mem=8GB
%nprocshared=4
# B3LYP/6-311++G(d,p) empiricaldispersion=gd3bj scf=xqc pop=npa geom=check

CID_80496854_JID_4718_Energie_anion

-1 2
