%chk=JID_7105.chk
%mem=8GB
%nprocshared=4
# opt freq B3LYP/6-31G(d) empiricaldispersion=gd3bj scf=xqc

CID_80327641_JID_7105_neutraal

0 1
C          0.97667        0.09720        0.00297
C          0.45379        0.63023        1.36533
C          1.49411        0.26861        2.43989
C          2.21129        1.57804        2.76441
N          1.84393        2.50423        1.69700
C          0.47223        2.16065        1.31521
C         -0.95852        0.04578        1.60994
O         -1.43449       -0.71424        0.75612
N         -1.71703        0.35865        2.73448
C         -1.33558        1.20954        3.85367
C         -3.09346       -0.17557        2.80682
C         -4.19067        0.84330        2.44428
O         -4.48056        0.89027        1.04889
C         -3.58100        1.68713        0.28721
C         -4.33306        2.85681       -0.26275
C         -4.45261        4.13809        0.52235
C         -3.59574        4.09213       -0.71323
H          0.31186        0.39064       -0.81822
H          1.03521       -0.99782        0.00392
H          1.97691        0.47947       -0.23099
H          1.05517       -0.17540        3.33876
H          2.21834       -0.46505        2.06410
H          3.29614        1.44221        2.80861
H          1.88542        1.96799        3.73467
H          1.91633        3.47328        2.00189
H          0.24743        2.54849        0.31553
H         -0.23737        2.63508        1.99690
H         -1.92758        2.12805        3.81992
H         -1.54398        0.68089        4.78889
H         -0.28720        1.47869        3.85367
H         -3.19435       -1.06025        2.16941
H         -3.24431       -0.51225        3.83958
H         -5.11882        0.50671        2.91978
H         -3.98635        1.84789        2.82966
H         -2.71970        2.02270        0.87237
H         -3.21336        1.07599       -0.54307
H         -5.18718        2.53946       -0.85083
H         -5.39450        4.67244        0.46970
H         -3.95719        4.20713        1.48334
H         -2.51962        4.13099       -0.58890
H         -3.95623        4.59829       -1.60187

--Link1--
%chk=JID_7105.chk
%mem=8GB
%nprocshared=4
# B3LYP/6-311++G(d,p) empiricaldispersion=gd3bj scf=xqc pop=npa geom=check

CID_80327641_JID_7105_Energie_neutraal

0 1

--Link1--
%chk=JID_7105.chk
%mem=8GB
%nprocshared=4
# B3LYP/6-311++G(d,p) empiricaldispersion=gd3bj scf=xqc pop=npa geom=check

CID_80327641_JID_7105_Energie_kation

1 2

--Link1--
%chk=JID_7105.chk
%mem=8GB
%nprocshared=4
# B3LYP/6-311++G(d,p) empiricaldispersion=gd3bj scf=xqc pop=npa geom=check

CID_80327641_JID_7105_Energie_anion

-1 2
