%chk=JID_9134.chk
%mem=8GB
%nprocshared=4
# opt freq B3LYP/6-31G(d) empiricaldispersion=gd3bj scf=xqc

CID_80742277_JID_9134_neutraal

0 1
C          1.01040        0.04916       -0.08646
C          0.14372       -0.96745        0.66902
C         -1.35197       -0.70678        0.42440
C         -1.77694       -1.03325       -1.00571
C         -1.39543       -2.46617       -1.41076
C          0.07690       -2.78882       -1.11470
C          0.47340       -2.43821        0.32705
C          1.93918       -2.79248        0.58226
O         -1.77950       -2.86774       -2.74603
C         -1.39785       -2.04097       -3.76780
C         -2.22626       -0.96186       -4.09374
C         -1.87843       -0.08885       -5.12220
C         -0.71424       -0.31046       -5.84930
C          0.07637       -1.42763       -5.57457
C         -0.27795       -2.33509       -4.55900
C          0.55264       -3.57725       -4.34424
C          0.77689       -4.37980       -5.59932
O          1.65083       -4.19038       -6.43171
O         -0.11961       -5.37147       -5.76863
H          0.69619        1.07118        0.15253
H          0.95321       -0.07008       -1.17185
H          2.06152       -0.03821        0.20592
H          0.33178       -0.81518        1.74041
H         -1.94111       -1.31821        1.11998
H         -1.59533        0.33861        0.64907
H         -1.31727       -0.30173       -1.67801
H         -2.86074       -0.89954       -1.10505
H         -1.98746       -3.12884       -0.76448
H          0.72799       -2.25766       -1.81692
H          0.25213       -3.85684       -1.29430
H         -0.12539       -3.07055        0.99812
H          2.23591       -2.51381        1.59873
H          2.09560       -3.87129        0.47382
H          2.60989       -2.29095       -0.12244
H         -3.14435       -0.79364       -3.53790
H         -2.51475        0.76076       -5.35399
H         -0.43150        0.37149       -6.64719
H          0.96743       -1.59514       -6.17847
H          1.53228       -3.29974       -3.93727
H          0.09894       -4.24992       -3.60888
H          0.12104       -5.76733       -6.63157

--Link1--
%chk=JID_9134.chk
%mem=8GB
%nprocshared=4
# B3LYP/6-311++G(d,p) empiricaldispersion=gd3bj scf=xqc pop=npa geom=check

CID_80742277_JID_9134_Energie_neutraal

0 1

--Link1--
%chk=JID_9134.chk
%mem=8GB
%nprocshared=4
# B3LYP/6-311++G(d,p) empiricaldispersion=gd3bj scf=xqc pop=npa geom=check

CID_80742277_JID_9134_Energie_kation

1 2

--Link1--
%chk=JID_9134.chk
%mem=8GB
%nprocshared=4
# B3LYP/6-311++G(d,p) empiricaldispersion=gd3bj scf=xqc pop=npa geom=check

CID_80742277_JID_9134_Energie_anion

-1 2
