%chk=JID_6185.chk
%mem=8GB
%nprocshared=4
# opt freq B3LYP/6-31G(d) empiricaldispersion=gd3bj scf=xqc

CID_53968280_JID_6185_neutraal

0 1
C          1.06761        0.00083       -0.07368
C          0.13419        1.04344       -0.68609
C         -0.99965        0.37338       -1.52453
C         -2.24440        0.40779       -0.60822
C         -2.01571        1.30443        0.36455
C         -0.64449        1.75215        0.35589
C         -0.48042        2.63315        1.35161
C         -1.78108        2.77444        2.03453
C         -2.70069        1.96709        1.44874
C         -4.15473        1.86750        1.72749
C         -1.95643        3.71124        3.17960
C          0.76061        3.33770        1.75908
N         -3.33504       -0.43654       -0.83181
C         -3.56464       -1.12139       -2.10324
C         -4.06418       -1.03705        0.28887
C         -1.20433        1.17051       -2.82040
H          1.58938       -0.55364       -0.86100
H          0.52490       -0.72389        0.54407
H          1.82602        0.47649        0.55763
H          0.72350        1.74802       -1.28387
H         -0.72792       -0.65936       -1.77335
H         -4.73244        1.85979        0.79761
H         -4.38116        0.96181        2.29644
H         -4.51796        2.71879        2.31098
H         -1.77526        4.74348        2.86290
H         -2.96317        3.66592        3.60381
H         -1.25609        3.46809        3.98558
H          0.62327        4.42256        1.70957
H          1.04039        3.06831        2.78249
H          1.60057        3.08044        1.10556
H         -2.75807       -1.82980       -2.31746
H         -4.50735       -1.68095       -2.09169
H         -3.65071       -0.40245       -2.92121
H         -3.52614       -0.93358        1.23636
H         -5.05299       -0.57782        0.37966
H         -4.20413       -2.11373        0.13622
H         -0.26400        1.23838       -3.37892
H         -1.93079        0.69714       -3.48335
H         -1.54945        2.19107       -2.61955

--Link1--
%chk=JID_6185.chk
%mem=8GB
%nprocshared=4
# B3LYP/6-311++G(d,p) empiricaldispersion=gd3bj scf=xqc pop=npa geom=check

CID_53968280_JID_6185_Energie_neutraal

0 1

--Link1--
%chk=JID_6185.chk
%mem=8GB
%nprocshared=4
# B3LYP/6-311++G(d,p) empiricaldispersion=gd3bj scf=xqc pop=npa geom=check

CID_53968280_JID_6185_Energie_kation

1 2

--Link1--
%chk=JID_6185.chk
%mem=8GB
%nprocshared=4
# B3LYP/6-311++G(d,p) empiricaldispersion=gd3bj scf=xqc pop=npa geom=check

CID_53968280_JID_6185_Energie_anion

-1 2
