%chk=JID_1007.chk
%mem=8GB
%nprocshared=4
# opt freq B3LYP/6-31G(d) empiricaldispersion=gd3bj scf=xqc

CID_123419047_JID_1007_neutraal

0 1
C          1.05069        0.06229       -0.05959
C          0.60796        1.01407        1.04327
C          1.59303        2.18051        1.25511
C          1.52857        3.17243        0.08621
C          1.30486        2.93080        2.56859
C          1.50683        2.14006        3.83668
C          2.41219        0.92921        3.96313
C          2.81137        2.23003        4.63316
C          4.01842        2.93460        4.05934
C          2.70087        2.37436        6.13140
C          1.95419       -0.26411        4.73360
H          1.06280        0.55261       -1.03694
H          0.35893       -0.78397       -0.12351
H          2.05056       -0.33466        0.14257
H         -0.39142        1.40110        0.80973
H          0.50542        0.42864        1.96288
H          2.61470        1.78544        1.28621
H          0.52023        3.58439       -0.02975
H          2.21762        4.00842        0.24851
H          1.81299        2.69800       -0.85758
H          1.91259        3.84241        2.61616
H          0.26393        3.28140        2.55139
H          0.58087        2.12298        4.40784
H          3.00626        0.61164        3.11320
H          3.94065        4.01477        4.21946
H          4.93120        2.57946        4.54930
H          4.13481        2.75962        2.98497
H          1.75197        1.99375        6.52185
H          3.51438        1.83244        6.62474
H          2.76972        3.42954        6.41636
H          1.48326       -0.98471        4.05721
H          2.80772       -0.75544        5.21046
H          1.22325       -0.01356        5.50823

--Link1--
%chk=JID_1007.chk
%mem=8GB
%nprocshared=4
# B3LYP/6-311++G(d,p) empiricaldispersion=gd3bj scf=xqc pop=npa geom=check

CID_123419047_JID_1007_Energie_neutraal

0 1

--Link1--
%chk=JID_1007.chk
%mem=8GB
%nprocshared=4
# B3LYP/6-311++G(d,p) empiricaldispersion=gd3bj scf=xqc pop=npa geom=check

CID_123419047_JID_1007_Energie_kation

1 2

--Link1--
%chk=JID_1007.chk
%mem=8GB
%nprocshared=4
# B3LYP/6-311++G(d,p) empiricaldispersion=gd3bj scf=xqc pop=npa geom=check

CID_123419047_JID_1007_Energie_anion

-1 2
