%chk=JID_3709.chk
%mem=8GB
%nprocshared=4
# opt freq B3LYP/6-31G(d) empiricaldispersion=gd3bj scf=xqc

CID_146916080_JID_3709_neutraal

0 1
C          1.26600       -0.09700        0.26800
C          0.63446        1.17345       -0.27685
C         -0.85361        0.85802       -0.42728
C         -0.99490       -0.66531       -0.26217
C          0.43493       -1.19860       -0.36842
C         -1.96530       -1.27425       -1.27934
C         -2.13178       -2.79478       -1.18112
C         -2.68021       -3.31571        0.15111
C         -4.04007       -2.74700        0.57699
C         -5.18262       -2.94710       -0.42520
C         -5.47735       -4.34230       -0.71110
C         -5.54903       -5.28191       -1.61604
C         -5.91594       -5.46528       -0.05326
H          1.16900       -0.13015        1.35960
H          2.32720       -0.17550        0.01548
H          0.81161        2.03496        0.37391
H          1.05950        1.40759       -1.26033
H         -1.21864        1.21304       -1.39744
H         -1.43732        1.37296        0.34450
H         -1.36588       -0.85540        0.75335
H          0.72842       -1.33458       -1.41635
H          0.56165       -2.15412        0.14950
H         -2.94330       -0.78849       -1.18148
H         -1.61528       -1.04038       -2.29342
H         -2.78737       -3.12422       -1.99596
H         -1.16523       -3.27784       -1.36937
H         -2.74857       -4.40892        0.09084
H         -1.95480       -3.11164        0.94767
H         -4.31816       -3.20697        1.53449
H         -3.93765       -1.67435        0.78048
H         -6.08443       -2.47325       -0.01851
H         -4.95921       -2.41622       -1.35723
H         -5.74045       -6.28038       -1.96250
H         -5.20580       -6.09538        0.45967
H         -6.97340       -5.61598        0.10017

--Link1--
%chk=JID_3709.chk
%mem=8GB
%nprocshared=4
# B3LYP/6-311++G(d,p) empiricaldispersion=gd3bj scf=xqc pop=npa geom=check

CID_146916080_JID_3709_Energie_neutraal

0 1

--Link1--
%chk=JID_3709.chk
%mem=8GB
%nprocshared=4
# B3LYP/6-311++G(d,p) empiricaldispersion=gd3bj scf=xqc pop=npa geom=check

CID_146916080_JID_3709_Energie_kation

1 2

--Link1--
%chk=JID_3709.chk
%mem=8GB
%nprocshared=4
# B3LYP/6-311++G(d,p) empiricaldispersion=gd3bj scf=xqc pop=npa geom=check

CID_146916080_JID_3709_Energie_anion

-1 2
