%chk=JID_6514.chk
%mem=8GB
%nprocshared=4
# opt freq B3LYP/6-31G(d) empiricaldispersion=gd3bj scf=xqc

CID_22893880_JID_6514_neutraal

0 1
C         -3.50500       -0.01600       -0.00500
C         -2.02009       -0.08324       -0.01866
C         -1.15721       -1.16732        0.08377
C          0.18002       -0.64021        0.02950
C          1.47167       -1.20763        0.08134
C          2.59919       -0.38141        0.00033
C          2.45980        0.99671       -0.12973
C          1.19486        1.58673       -0.18271
C          0.07905        0.74415       -0.10133
N         -1.25857        1.05245       -0.12414
C         -1.56584       -2.61379        0.22869
C         -1.15574       -3.46243       -0.97578
C         -1.11363       -3.18115        1.57058
O         -1.66901       -2.93142        2.63612
O         -0.01560       -3.98087        1.45117
C          0.47154       -4.48868        2.69363
H         -3.88477       -0.25035        0.99446
H         -3.86649        0.97951       -0.28246
H         -3.92847       -0.73446       -0.71399
H          1.60486       -2.28002        0.18241
H          3.59153       -0.82340        0.04034
H          3.34611        1.62385       -0.18987
H          1.08750        2.66181       -0.28206
H         -1.62259        1.99161       -0.20245
H         -2.66284       -2.67101        0.26427
H         -0.07082       -3.48685       -1.11981
H         -1.49358       -4.49743       -0.85308
H         -1.59988       -3.06889       -1.89698
H          0.73572       -3.66869        3.36899
H         -0.27111       -5.14799        3.15342
H          1.37410       -5.07148        2.49025

--Link1--
%chk=JID_6514.chk
%mem=8GB
%nprocshared=4
# B3LYP/6-311++G(d,p) empiricaldispersion=gd3bj scf=xqc pop=npa geom=check

CID_22893880_JID_6514_Energie_neutraal

0 1

--Link1--
%chk=JID_6514.chk
%mem=8GB
%nprocshared=4
# B3LYP/6-311++G(d,p) empiricaldispersion=gd3bj scf=xqc pop=npa geom=check

CID_22893880_JID_6514_Energie_kation

1 2

--Link1--
%chk=JID_6514.chk
%mem=8GB
%nprocshared=4
# B3LYP/6-311++G(d,p) empiricaldispersion=gd3bj scf=xqc pop=npa geom=check

CID_22893880_JID_6514_Energie_anion

-1 2
