%chk=JID_934.chk
%mem=8GB
%nprocshared=4
# opt freq B3LYP/6-31G(d) empiricaldispersion=gd3bj scf=xqc

CID_114964288_JID_934_neutraal

0 1
C          1.06827        0.00158       -0.07306
C          0.37607       -1.19162        0.56609
C          0.67304       -1.35215        2.06122
C          0.22579       -0.18246        2.95076
C         -1.28499        0.03216        2.93765
C          0.72530       -0.29758        4.39463
O          1.05028        0.72242        5.01362
C          0.71364       -1.64606        5.10258
C         -0.64586       -1.94786        5.65445
C         -1.37384       -3.02248        5.32440
H          0.66666        0.94728        0.30209
H          0.91612       -0.01334       -1.15716
H          2.14578       -0.01941        0.11783
H         -0.70403       -1.12227        0.39690
H          0.71068       -2.10128        0.05241
H          0.18325       -2.27586        2.39348
H          1.75104       -1.51295        2.19206
H          0.69861        0.73192        2.56949
H         -1.82552       -0.89736        3.14079
H         -1.58716        0.76460        3.69417
H         -1.61876        0.40664        1.96472
H          1.08623       -2.43057        4.43929
H          1.42928       -1.59143        5.93194
H         -1.04565       -1.23885        6.37870
H         -2.35218       -3.18545        5.76775
H         -1.01799       -3.76331        4.61499

--Link1--
%chk=JID_934.chk
%mem=8GB
%nprocshared=4
# B3LYP/6-311++G(d,p) empiricaldispersion=gd3bj scf=xqc pop=npa geom=check

CID_114964288_JID_934_Energie_neutraal

0 1

--Link1--
%chk=JID_934.chk
%mem=8GB
%nprocshared=4
# B3LYP/6-311++G(d,p) empiricaldispersion=gd3bj scf=xqc pop=npa geom=check

CID_114964288_JID_934_Energie_kation

1 2

--Link1--
%chk=JID_934.chk
%mem=8GB
%nprocshared=4
# B3LYP/6-311++G(d,p) empiricaldispersion=gd3bj scf=xqc pop=npa geom=check

CID_114964288_JID_934_Energie_anion

-1 2
