%chk=JID_6511.chk
%mem=8GB
%nprocshared=4
# opt freq B3LYP/6-31G(d) empiricaldispersion=gd3bj scf=xqc

CID_107767816_JID_6511_neutraal

0 1
C          1.04389       -0.08194       -0.03687
C          0.12119        0.03623       -1.24135
C          0.79647        0.67211       -2.47280
C          1.93376       -0.20727       -3.00737
C         -0.26017        0.91478       -3.56324
S          0.26424        2.17745       -4.76900
O         -0.69436        2.13600       -5.92095
C         -0.10337        3.66892       -3.77944
C         -1.59217        3.90375       -3.54596
C         -1.97791        3.93974       -2.05844
O         -1.30745        5.04880       -1.46364
C         -0.88606        4.85559       -0.11734
C          0.47027        4.17880       -0.05667
O         -3.39682        4.09958       -2.05591
C         -4.06243        3.97418       -0.80977
C         -4.03658        2.55348       -0.27364
H          1.84675       -0.80309       -0.21464
H          0.47870       -0.42773        0.83477
H          1.49337        0.88383        0.21372
H         -0.27294       -0.95526       -1.49535
H         -0.73756        0.65096       -0.94410
H          1.23551        1.62578       -2.15966
H          1.57370       -1.21113       -3.25753
H          2.38123        0.22439       -3.90827
H          2.73602       -0.30981       -2.27033
H         -0.44212       -0.00757       -4.12670
H         -1.22020        1.22184       -3.14140
H          0.47419        3.61328       -2.85606
H          0.30458        4.50396       -4.35992
H         -1.85385        4.87593       -3.98695
H         -2.22181        3.17228       -4.06610
H         -1.69198        2.99113       -1.59272
H         -0.80551        5.84839        0.33709
H         -1.61756        4.28840        0.46361
H          1.20309        4.72233       -0.66136
H          0.83112        4.12740        0.97466
H          0.41516        3.16105       -0.45066
H         -3.67421        4.69370       -0.08418
H         -5.10665        4.25333       -0.98854
H         -3.02846        2.25605        0.02893
H         -4.69038        2.46068        0.59860
H         -4.36601        1.84496       -1.04048

--Link1--
%chk=JID_6511.chk
%mem=8GB
%nprocshared=4
# B3LYP/6-311++G(d,p) empiricaldispersion=gd3bj scf=xqc pop=npa geom=check

CID_107767816_JID_6511_Energie_neutraal

0 1

--Link1--
%chk=JID_6511.chk
%mem=8GB
%nprocshared=4
# B3LYP/6-311++G(d,p) empiricaldispersion=gd3bj scf=xqc pop=npa geom=check

CID_107767816_JID_6511_Energie_kation

1 2

--Link1--
%chk=JID_6511.chk
%mem=8GB
%nprocshared=4
# B3LYP/6-311++G(d,p) empiricaldispersion=gd3bj scf=xqc pop=npa geom=check

CID_107767816_JID_6511_Energie_anion

-1 2
