%chk=JID_10941.chk
%mem=8GB
%nprocshared=4
# opt freq B3LYP/6-31G(d) empiricaldispersion=gd3bj scf=xqc

CID_64462806_JID_10941_neutraal

0 1
C          1.07822       -0.06216        0.00421
C          0.49440        1.30443       -0.36796
C          1.56611        2.14827       -1.05797
N         -0.68144        1.05382       -1.20308
C         -1.54801        2.21057       -1.42227
C         -1.24266        2.87191       -2.73077
C         -0.81574        4.17376       -2.91201
N         -0.64641        4.40036       -4.25547
C         -0.97526        3.26717       -4.97215
C         -0.96224        3.00411       -6.35292
C         -1.37052        1.74076       -6.79055
C         -1.78490        0.77046       -5.88567
C         -1.79319        1.03898       -4.51399
C         -1.37385        2.30194       -4.04131
C         -0.24640        5.68526       -4.82026
C          1.22810        5.91977       -4.67396
C          2.22147        5.13541       -5.23511
S          3.79610        5.69899       -4.88087
C          3.18131        7.00918       -3.97487
C          1.80464        7.01308       -3.94227
H          1.41273       -0.61386       -0.88195
H          0.33728       -0.67726        0.52756
H          1.93902        0.05392        0.67188
H          0.19170        1.79654        0.56444
H          1.83233        1.73912       -2.03894
H          1.23516        3.18128       -1.19312
H          2.47947        2.18265       -0.45366
H         -0.39266        0.66943       -2.10162
H         -2.58540        1.85667       -1.45469
H         -1.49458        2.92512       -0.59224
H         -0.60686        4.95125       -2.18829
H         -0.64367        3.74968       -7.07387
H         -1.36635        1.51566       -7.85456
H         -2.10381       -0.20516       -6.24354
H         -2.12105        0.27324       -3.81616
H         -0.53975        5.71937       -5.87393
H         -0.82491        6.45582       -4.29670
H          2.09950        4.24272       -5.83485
H          3.85738        7.71335       -3.50944
H          1.23388        7.76889       -3.41521

--Link1--
%chk=JID_10941.chk
%mem=8GB
%nprocshared=4
# B3LYP/6-311++G(d,p) empiricaldispersion=gd3bj scf=xqc pop=npa geom=check

CID_64462806_JID_10941_Energie_neutraal

0 1

--Link1--
%chk=JID_10941.chk
%mem=8GB
%nprocshared=4
# B3LYP/6-311++G(d,p) empiricaldispersion=gd3bj scf=xqc pop=npa geom=check

CID_64462806_JID_10941_Energie_kation

1 2

--Link1--
%chk=JID_10941.chk
%mem=8GB
%nprocshared=4
# B3LYP/6-311++G(d,p) empiricaldispersion=gd3bj scf=xqc pop=npa geom=check

CID_64462806_JID_10941_Energie_anion

-1 2
