%chk=JID_9955.chk
%mem=8GB
%nprocshared=4
# opt freq B3LYP/6-31G(d) empiricaldispersion=gd3bj scf=xqc

CID_147037648_JID_9955_neutraal

0 1
C          0.93587       -0.07339        0.02237
C          0.84317       -0.37610        1.51864
C         -0.04897       -1.59868        1.84408
C          0.62204       -2.93845        2.14981
C          1.40334       -3.51671        0.97852
C          2.80356       -3.99930        1.34534
C          3.77719       -2.96538        1.92815
C          4.14767       -1.72339        1.08503
C          3.50929       -0.37812        1.52512
C          2.17811       -0.30665        2.28800
C          4.18870       -1.99759       -0.43699
C          4.74376       -0.84415       -1.28465
C          5.16186       -1.27021       -2.71154
C          5.68814       -0.06220       -3.50900
C          4.57959        0.89155       -3.95664
C          3.47168        0.16370       -4.71543
C          2.92195       -1.02361       -3.91673
C          4.05266       -1.97663       -3.51228
N          1.92568       -1.75069       -4.70442
H         -0.06311       -0.03409       -0.42591
H          1.51117       -0.81677       -0.52629
H          1.39926        0.90470       -0.14619
H          0.25290        0.46969        1.90745
H         -0.63628       -1.34112        2.73697
H         -0.78873       -1.74062        1.04576
H         -0.17304       -3.65098        2.40894
H          1.22805       -2.86506        3.05668
H          1.44368       -2.82034        0.14452
H          0.84721       -4.38110        0.59132
H          3.25521       -4.45818        0.45714
H          2.70643       -4.81436        2.07489
H          4.71449       -3.51802        2.09352
H          3.46973       -2.67277        2.93638
H          5.21248       -1.56516        1.32767
H          3.49544        0.34219        0.70358
H          4.23976        0.05869        2.22524
H          2.18400        0.69530        2.74695
H          2.18257       -0.96510        3.15963
H          4.81671       -2.88283       -0.60255
H          3.19503       -2.24628       -0.80896
H          3.99454       -0.04874       -1.34037
H          5.62100       -0.41719       -0.78241
H          5.99257       -1.98052       -2.60174
H          6.21243       -0.43089       -4.40029
H          6.43034        0.48881       -2.91936
H          5.00739        1.67117       -4.59756
H          4.15175        1.40458       -3.08772
H          3.87066       -0.18248       -5.67828
H          2.66555        0.87150       -4.94454
H          2.42208       -0.65043       -3.01589
H          3.65286       -2.82920       -2.95154
H          4.50679       -2.40518       -4.41729
H          1.19574       -1.10798       -5.00986
H          2.35492       -2.11322       -5.55511

--Link1--
%chk=JID_9955.chk
%mem=8GB
%nprocshared=4
# B3LYP/6-311++G(d,p) empiricaldispersion=gd3bj scf=xqc pop=npa geom=check

CID_147037648_JID_9955_Energie_neutraal

0 1

--Link1--
%chk=JID_9955.chk
%mem=8GB
%nprocshared=4
# B3LYP/6-311++G(d,p) empiricaldispersion=gd3bj scf=xqc pop=npa geom=check

CID_147037648_JID_9955_Energie_kation

1 2

--Link1--
%chk=JID_9955.chk
%mem=8GB
%nprocshared=4
# B3LYP/6-311++G(d,p) empiricaldispersion=gd3bj scf=xqc pop=npa geom=check

CID_147037648_JID_9955_Energie_anion

-1 2
