%chk=JID_9491.chk
%mem=8GB
%nprocshared=4
# opt freq B3LYP/6-31G(d) empiricaldispersion=gd3bj scf=xqc

CID_117402686_JID_9491_neutraal

0 1
C          2.42900        1.51200       -0.04500
N          1.62662        0.36940        0.33001
C          2.11352       -0.76638        0.91366
C          1.05255       -1.61867        1.11325
C         -0.12943       -0.99208        0.61424
C          0.25951        0.27654        0.16727
C         -0.66111        1.21065       -0.32306
C         -2.00929        0.84952       -0.35333
C         -2.44836       -0.42197        0.04432
C         -1.50024       -1.35781        0.52001
O         -1.99684       -2.56600        0.98271
C         -1.28797       -3.70162        0.49524
C         -3.93113       -0.73384       -0.00192
N         -4.51671       -1.17834       -1.27252
C         -4.53918       -0.19662       -2.36107
C         -3.38296       -0.28807       -3.38486
N         -3.15420       -1.65468       -3.88384
C         -2.92641       -2.53481       -2.72425
C         -4.09901       -2.51029       -1.72007
H          2.27224        1.71311       -1.10787
H          2.11790        2.36615        0.56179
H          3.48471        1.29362        0.13549
H          3.16419       -0.87965        1.14703
H          1.12663       -2.59331        1.57397
H         -0.35045        2.19801       -0.64930
H         -2.73079        1.58741       -0.69844
H         -0.78351       -3.52129       -0.46040
H         -0.57584       -4.04621        1.24948
H         -2.01448       -4.50530        0.33990
H         -4.17868       -1.46835        0.77547
H         -4.47364        0.16280        0.33029
H         -5.47386       -0.36446       -2.91346
H         -4.62059        0.82692       -1.97701
H         -2.45136        0.09529       -2.95820
H         -3.61522        0.35684       -4.24001
H         -4.00997       -1.96463       -4.34480
H         -1.98715       -2.25399       -2.23757
H         -2.79206       -3.55915       -3.08955
H         -3.88577       -3.17035       -0.87254
H         -4.96711       -2.96498       -2.21671

--Link1--
%chk=JID_9491.chk
%mem=8GB
%nprocshared=4
# B3LYP/6-311++G(d,p) empiricaldispersion=gd3bj scf=xqc pop=npa geom=check

CID_117402686_JID_9491_Energie_neutraal

0 1

--Link1--
%chk=JID_9491.chk
%mem=8GB
%nprocshared=4
# B3LYP/6-311++G(d,p) empiricaldispersion=gd3bj scf=xqc pop=npa geom=check

CID_117402686_JID_9491_Energie_kation

1 2

--Link1--
%chk=JID_9491.chk
%mem=8GB
%nprocshared=4
# B3LYP/6-311++G(d,p) empiricaldispersion=gd3bj scf=xqc pop=npa geom=check

CID_117402686_JID_9491_Energie_anion

-1 2
