%chk=JID_10179.chk
%mem=8GB
%nprocshared=4
# opt freq B3LYP/6-31G(d) empiricaldispersion=gd3bj scf=xqc

CID_64025233_JID_10179_neutraal

0 1
C          0.92877       -0.01033       -0.06942
C          0.25342       -1.35011       -0.42115
C          0.67135       -2.41211        0.63789
C          0.25646       -2.14475        2.09421
C         -1.20126       -2.36774        2.41029
C         -2.05575       -1.27859        2.62908
C         -3.40494       -1.48211        2.92298
C         -3.91362       -2.77638        3.00393
C         -3.07384       -3.86783        2.78888
C         -1.72428       -3.66509        2.49387
N         -1.21520       -1.25707       -0.59939
C         -1.66435       -0.06215       -1.32599
C         -3.19333        0.03376       -1.38079
C         -3.82445       -1.21208       -2.00763
C         -3.28510       -2.45719       -1.29444
C         -1.75742       -2.46866       -1.24408
C         -5.36504       -1.20299       -1.94238
C         -6.06186        0.00306       -2.58421
N         -5.76861        0.10726       -4.01350
C         -6.48184        1.22902       -4.61031
H          0.44312        0.48251        0.77923
H          0.91019        0.67861       -0.92086
H          1.98365       -0.15915        0.18706
H          0.69527       -1.66437       -1.37765
H          0.34330       -3.41225        0.33454
H          1.76925       -2.46727        0.62287
H          0.83401       -2.81937        2.74144
H          0.55994       -1.13825        2.40388
H         -1.67645       -0.26274        2.55159
H         -4.05839       -0.62872        3.08083
H         -4.96453       -2.93414        3.22923
H         -3.47022       -4.87751        2.84826
H         -1.08136       -4.52568        2.32656
H         -1.25284       -0.04897       -2.34343
H         -1.32611        0.84895       -0.82143
H         -3.46257        0.92705       -1.95549
H         -3.58394        0.17855       -0.36481
H         -3.51324       -1.26751       -3.05892
H         -3.68017       -2.50455       -0.27181
H         -3.63471       -3.36052       -1.80913
H         -1.47090       -3.37112       -0.69698
H         -1.35759       -2.57168       -2.26160
H         -5.74319       -2.12012       -2.41388
H         -5.68005       -1.25055       -0.89144
H         -7.14258       -0.12226       -2.44288
H         -5.77439        0.92301       -2.06262
H         -4.76774        0.24123       -4.14901
H         -6.18918        2.17974       -4.15278
H         -6.24794        1.28303       -5.67800
H         -7.56553        1.10451       -4.51675

--Link1--
%chk=JID_10179.chk
%mem=8GB
%nprocshared=4
# B3LYP/6-311++G(d,p) empiricaldispersion=gd3bj scf=xqc pop=npa geom=check

CID_64025233_JID_10179_Energie_neutraal

0 1

--Link1--
%chk=JID_10179.chk
%mem=8GB
%nprocshared=4
# B3LYP/6-311++G(d,p) empiricaldispersion=gd3bj scf=xqc pop=npa geom=check

CID_64025233_JID_10179_Energie_kation

1 2

--Link1--
%chk=JID_10179.chk
%mem=8GB
%nprocshared=4
# B3LYP/6-311++G(d,p) empiricaldispersion=gd3bj scf=xqc pop=npa geom=check

CID_64025233_JID_10179_Energie_anion

-1 2
