%chk=JID_8117.chk
%mem=8GB
%nprocshared=4
# opt freq B3LYP/6-31G(d) empiricaldispersion=gd3bj scf=xqc

CID_54964356_JID_8117_neutraal

0 1
C          2.34700       -0.19300        0.01200
C          0.88381       -0.42374        0.17263
C          0.23745       -1.55816        0.61422
C         -1.17815       -1.40005        0.63005
C         -1.57627       -0.14675        0.20355
S         -0.22181        0.82026       -0.21752
C         -2.99502        0.38524        0.07980
C         -3.29447        1.36989        1.21477
N         -3.25930        1.03699       -1.20676
C         -4.44541        0.84747       -1.91100
C         -5.65584        0.47283       -1.31993
C         -6.84446        0.35949       -2.06796
C         -6.83558        0.66454       -3.43769
C         -5.64542        1.08271       -4.03011
C         -4.47380        1.18358       -3.26961
O         -8.03410        0.53289       -4.08779
C         -8.06293        0.85376       -5.47226
C         -8.11572       -0.06478       -1.38468
H          2.59195        0.03795       -1.02996
H          2.68092        0.63755        0.64262
H          2.91710       -1.08236        0.30047
H          0.75368       -2.46340        0.91104
H         -1.87226       -2.17271        0.93895
H         -3.65158       -0.48663        0.19983
H         -2.67372        2.27058        1.14360
H         -4.33952        1.69613        1.19144
H         -3.10781        0.91217        2.19267
H         -2.43731        1.03087       -1.80554
H         -5.70225        0.26753       -0.25486
H         -5.58842        1.34832       -5.07986
H         -3.56791        1.53339       -3.75956
H         -7.81135        1.90632       -5.63915
H         -7.40452        0.19245       -6.04510
H         -9.08489        0.69605       -5.83031
H         -8.85355        0.74302       -1.42380
H         -8.52682       -0.95773       -1.86682
H         -7.94463       -0.31018       -0.33124

--Link1--
%chk=JID_8117.chk
%mem=8GB
%nprocshared=4
# B3LYP/6-311++G(d,p) empiricaldispersion=gd3bj scf=xqc pop=npa geom=check

CID_54964356_JID_8117_Energie_neutraal

0 1

--Link1--
%chk=JID_8117.chk
%mem=8GB
%nprocshared=4
# B3LYP/6-311++G(d,p) empiricaldispersion=gd3bj scf=xqc pop=npa geom=check

CID_54964356_JID_8117_Energie_kation

1 2

--Link1--
%chk=JID_8117.chk
%mem=8GB
%nprocshared=4
# B3LYP/6-311++G(d,p) empiricaldispersion=gd3bj scf=xqc pop=npa geom=check

CID_54964356_JID_8117_Energie_anion

-1 2
