%chk=JID_8822.chk
%mem=8GB
%nprocshared=4
# opt freq B3LYP/6-31G(d) empiricaldispersion=gd3bj scf=xqc

CID_82785883_JID_8822_neutraal

0 1
C         -1.35000        0.00100        0.79800
C         -1.18232       -1.34131        0.09264
C          0.17362       -1.65453       -0.54199
C          1.39497       -1.22752        0.27489
N          1.93927        0.02920       -0.23224
C          1.32967        1.31863        0.09096
C          0.07876        1.54560       -0.76342
C         -1.25395        1.24898       -0.07414
C          3.27277        0.01119       -0.65110
C          4.33950        0.50346        0.13903
C          5.63111        0.55585       -0.39927
C          5.89978        0.01559       -1.65835
C          4.86827       -0.55328       -2.40943
C          3.56329       -0.54795       -1.90628
C          5.19470       -1.12668       -3.73625
O          6.29555       -1.13794       -4.25582
O          4.12994       -1.67254       -4.35027
N          4.09568        1.10969        1.39037
H         -0.66411        0.07621        1.64784
H         -2.35172        0.00252        1.24945
H         -1.38828       -2.12338        0.83581
H         -1.96002       -1.44933       -0.67374
H          0.21404       -1.24055       -1.55596
H          0.21540       -2.74380       -0.67636
H          2.14612       -2.02509        0.19065
H          1.17433       -1.15168        1.34530
H          2.02498        2.13505       -0.14546
H          1.11607        1.39918        1.16238
H          0.14267        0.99293       -1.70767
H          0.05232        2.60476       -1.05354
H         -2.04155        1.21945       -0.83746
H         -1.49435        2.10851        0.56606
H          6.44126        1.00919        0.16559
H          6.91406        0.04569       -2.05081
H          2.74657       -0.95077       -2.50010
H          4.49181       -2.00443       -5.19800
H          4.88906        1.05581        2.01969
H          3.24899        0.72044        1.79810

--Link1--
%chk=JID_8822.chk
%mem=8GB
%nprocshared=4
# B3LYP/6-311++G(d,p) empiricaldispersion=gd3bj scf=xqc pop=npa geom=check

CID_82785883_JID_8822_Energie_neutraal

0 1

--Link1--
%chk=JID_8822.chk
%mem=8GB
%nprocshared=4
# B3LYP/6-311++G(d,p) empiricaldispersion=gd3bj scf=xqc pop=npa geom=check

CID_82785883_JID_8822_Energie_kation

1 2

--Link1--
%chk=JID_8822.chk
%mem=8GB
%nprocshared=4
# B3LYP/6-311++G(d,p) empiricaldispersion=gd3bj scf=xqc pop=npa geom=check

CID_82785883_JID_8822_Energie_anion

-1 2
