%chk=JID_3917.chk
%mem=8GB
%nprocshared=4
# opt freq B3LYP/6-31G(d) empiricaldispersion=gd3bj scf=xqc

CID_105254830_JID_3917_neutraal

0 1
C         -0.02900        0.88300        0.00000
C         -0.85408       -0.35083       -0.23838
C          0.56972       -0.47834        0.23887
C          1.61793       -1.02719       -0.68499
C          3.00150       -0.40166       -0.46870
C          3.62642       -0.66886        0.91584
C          3.83267       -2.12975        1.21040
N          4.31115       -3.00181        0.30391
N          4.31776       -4.14636        1.00911
N          3.90298       -4.10687        2.28531
C          3.60908       -2.81114        2.42409
N          4.94480        0.02352        0.95438
N          5.35853        0.26073        2.32991
H         -0.26536        1.49254        0.86488
H          0.29341        1.45062       -0.86577
H         -1.64741       -0.57587        0.46569
H         -1.08838       -0.61350       -1.26393
H          0.70719       -0.80544        1.26350
H          1.66092       -2.11560       -0.56881
H          1.32621       -0.84466       -1.72733
H          3.66730       -0.77430       -1.25924
H          2.92314        0.68364       -0.61976
H          2.96849       -0.22920        1.67670
H          4.62523       -5.01904        0.58723
H          3.25840       -2.42822        3.37224
H          5.60372       -0.59227        0.45785
H          6.33317        0.57770        2.35885
H          4.82698        1.03976        2.73192

--Link1--
%chk=JID_3917.chk
%mem=8GB
%nprocshared=4
# B3LYP/6-311++G(d,p) empiricaldispersion=gd3bj scf=xqc pop=npa geom=check

CID_105254830_JID_3917_Energie_neutraal

0 1

--Link1--
%chk=JID_3917.chk
%mem=8GB
%nprocshared=4
# B3LYP/6-311++G(d,p) empiricaldispersion=gd3bj scf=xqc pop=npa geom=check

CID_105254830_JID_3917_Energie_kation

1 2

--Link1--
%chk=JID_3917.chk
%mem=8GB
%nprocshared=4
# B3LYP/6-311++G(d,p) empiricaldispersion=gd3bj scf=xqc pop=npa geom=check

CID_105254830_JID_3917_Energie_anion

-1 2
