%chk=JID_8150.chk
%mem=8GB
%nprocshared=4
# opt freq B3LYP/6-31G(d) empiricaldispersion=gd3bj scf=xqc

CID_119343030_JID_8150_neutraal

0 1
C          1.08239        0.04614        0.03292
C          1.36408       -0.05447        1.52216
C          1.62849        1.25479        2.30531
C          2.90168        1.97721        1.82647
N          2.68004        2.85981        0.68576
C          1.60139        3.83200        0.83526
C          0.28661        3.15321        1.19740
C          0.44686        2.25462        2.43497
C         -0.83572        1.60630        2.93774
C         -1.92155        1.31149        2.10119
C         -3.07361        0.70553        2.61022
C         -3.15781        0.38310        3.96197
C         -2.08890        0.66444        4.80719
C         -0.93763        1.26940        4.29912
C          3.65422        2.91641       -0.30779
O          4.65096        2.18742       -0.29474
C          3.46014        3.89470       -1.47446
N          2.35669        3.45863       -2.34439
H          0.12677        0.53218       -0.16877
H          1.01995       -0.96054       -0.39519
H          1.87433        0.57379       -0.50201
H          0.53986       -0.60228        1.99431
H          2.24414       -0.70006        1.64613
H          1.85568        0.90739        3.32514
H          3.28232        2.61461        2.63537
H          3.68953        1.24597        1.61574
H          1.45372        4.42834       -0.06567
H          1.90324        4.52826        1.62724
H         -0.06274        2.58769        0.33008
H         -0.47216        3.92235        1.38953
H          0.73666        2.95494        3.23589
H         -1.89148        1.53799        1.03920
H         -3.90536        0.48263        1.94682
H         -4.05413       -0.08900        4.35475
H         -2.14904        0.41216        5.86251
H         -0.11339        1.47799        4.97818
H          3.29474        4.90790       -1.09756
H          4.38882        3.91593       -2.05592
H          2.37699        4.01248       -3.19925
H          2.54318        2.49594       -2.63209

--Link1--
%chk=JID_8150.chk
%mem=8GB
%nprocshared=4
# B3LYP/6-311++G(d,p) empiricaldispersion=gd3bj scf=xqc pop=npa geom=check

CID_119343030_JID_8150_Energie_neutraal

0 1

--Link1--
%chk=JID_8150.chk
%mem=8GB
%nprocshared=4
# B3LYP/6-311++G(d,p) empiricaldispersion=gd3bj scf=xqc pop=npa geom=check

CID_119343030_JID_8150_Energie_kation

1 2

--Link1--
%chk=JID_8150.chk
%mem=8GB
%nprocshared=4
# B3LYP/6-311++G(d,p) empiricaldispersion=gd3bj scf=xqc pop=npa geom=check

CID_119343030_JID_8150_Energie_anion

-1 2
