%chk=JID_7864.chk
%mem=8GB
%nprocshared=4
# opt freq B3LYP/6-31G(d) empiricaldispersion=gd3bj scf=xqc

CID_55170999_JID_7864_neutraal

0 1
C          2.20000        0.01800       -0.02000
N          0.75906       -0.04274       -0.06881
C          0.03824       -1.17762       -0.32403
C         -1.27711       -0.78956       -0.27452
N         -1.37380        0.54672        0.00391
C         -0.13345        0.98978        0.11356
C          0.23875        2.40713        0.39284
N          0.27930        3.17009       -0.83547
C         -0.81755        3.60702       -1.52510
N         -0.43752        4.37225       -2.52326
N          0.93699        4.43805       -2.49652
C          1.34964        3.70462       -1.48926
S          2.99655        3.51842       -1.00098
C          3.46222        5.27488       -0.89839
C          2.67163        5.99056        0.17340
O          1.98359        5.49886        1.05619
O          2.82897        7.32971        0.10643
H          2.59603       -0.98746        0.14768
H          2.55744        0.39988       -0.97825
H          2.50980        0.66207        0.80507
H          0.50133       -2.13533       -0.51725
H         -2.15788       -1.40040       -0.42577
H         -0.52239        2.87007        1.03268
H          1.18856        2.49665        0.92337
H         -1.83474        3.34900       -1.26137
H          4.52402        5.33583       -0.64322
H          3.29566        5.75614       -1.86657
H          2.25323        7.68122        0.81800

--Link1--
%chk=JID_7864.chk
%mem=8GB
%nprocshared=4
# B3LYP/6-311++G(d,p) empiricaldispersion=gd3bj scf=xqc pop=npa geom=check

CID_55170999_JID_7864_Energie_neutraal

0 1

--Link1--
%chk=JID_7864.chk
%mem=8GB
%nprocshared=4
# B3LYP/6-311++G(d,p) empiricaldispersion=gd3bj scf=xqc pop=npa geom=check

CID_55170999_JID_7864_Energie_kation

1 2

--Link1--
%chk=JID_7864.chk
%mem=8GB
%nprocshared=4
# B3LYP/6-311++G(d,p) empiricaldispersion=gd3bj scf=xqc pop=npa geom=check

CID_55170999_JID_7864_Energie_anion

-1 2
