%chk=JID_8498.chk
%mem=8GB
%nprocshared=4
# opt freq B3LYP/6-31G(d) empiricaldispersion=gd3bj scf=xqc

CID_115008895_JID_8498_neutraal

0 1
C          1.19500       -0.84900       -0.23000
C          1.40780        0.65571       -0.30105
C          0.37058        1.25237        0.64354
C         -0.83339        0.27290        0.62569
C         -0.06059       -1.06464        0.61859
C         -1.82307        0.46602        1.78371
C         -2.73921       -0.51764        2.23257
C         -3.58237       -0.17864        3.30451
N         -3.61148        1.01417        3.93804
C         -2.76127        1.94225        3.47642
C         -1.88039        1.72313        2.42691
C         -2.91127       -1.85397        1.65121
C         -3.74520       -2.05087        0.53909
C         -3.93832       -3.32782        0.00769
C         -3.31274       -4.42751        0.59098
C         -2.50101       -4.25373        1.70979
C         -2.30776       -2.97673        2.24121
N         -1.52971        0.45381       -0.65739
H          1.06059       -1.25948       -1.23718
H          2.05611       -1.35741        0.21641
H          1.24332        1.01017       -1.32531
H          2.42527        0.94105       -0.01597
H          0.11023        2.27263        0.33797
H          0.80492        1.31142        1.65100
H          0.24131       -1.33640        1.63864
H         -0.63297       -1.90249        0.21038
H         -4.30213       -0.89990        3.68901
H         -2.80240        2.90385        3.98021
H         -1.24768        2.55158        2.12577
H         -4.26042       -1.20639        0.08552
H         -4.58302       -3.46488       -0.85678
H         -3.46418       -5.42169        0.17815
H         -2.01924       -5.11215        2.17088
H         -1.67383       -2.85833        3.11807
H         -2.18851       -0.31123       -0.78587
H         -2.08096        1.30935       -0.62239

--Link1--
%chk=JID_8498.chk
%mem=8GB
%nprocshared=4
# B3LYP/6-311++G(d,p) empiricaldispersion=gd3bj scf=xqc pop=npa geom=check

CID_115008895_JID_8498_Energie_neutraal

0 1

--Link1--
%chk=JID_8498.chk
%mem=8GB
%nprocshared=4
# B3LYP/6-311++G(d,p) empiricaldispersion=gd3bj scf=xqc pop=npa geom=check

CID_115008895_JID_8498_Energie_kation

1 2

--Link1--
%chk=JID_8498.chk
%mem=8GB
%nprocshared=4
# B3LYP/6-311++G(d,p) empiricaldispersion=gd3bj scf=xqc pop=npa geom=check

CID_115008895_JID_8498_Energie_anion

-1 2
