%chk=JID_7279.chk
%mem=8GB
%nprocshared=4
# opt freq B3LYP/6-31G(d) empiricaldispersion=gd3bj scf=xqc

CID_109919794_JID_7279_neutraal

0 1
C          2.41100       -0.71300        0.03900
C          1.08038       -0.08604        0.14421
C          0.64139        1.21818        0.12231
C         -0.77752        1.17759        0.25629
C         -1.09884       -0.16577        0.35625
O          0.02524       -0.93154        0.28826
C         -2.37384       -0.90063        0.48862
C         -1.70347        2.34581        0.26860
N         -2.40713        2.35771       -1.00934
C         -3.28870        3.52618       -1.19344
C         -2.60201        4.90701       -1.33371
C         -1.73501        5.30750       -2.56666
C         -2.59783        5.61900       -3.80289
C         -0.99347        6.61465       -2.19239
C         -0.67671        4.26302       -2.94105
C         -4.25940        3.19066       -2.34093
O         -4.98363        2.00258       -2.00911
H          2.60922       -1.34180        0.91240
H          2.46961       -1.33763       -0.85756
H          3.19873        0.04433       -0.02079
H          1.26475        2.09498        0.01519
H         -2.67608       -1.31017       -0.48011
H         -2.27200       -1.72883        1.19675
H         -3.17361       -0.24649        0.84837
H         -2.41098        2.25131        1.10001
H         -1.12028        3.25951        0.42108
H         -1.72987        2.28755       -1.76458
H         -3.91061        3.57992       -0.28786
H         -3.39819        5.66062       -1.23800
H         -1.99097        5.05524       -0.43335
H         -3.41519        6.30513       -3.55574
H         -1.99828        6.09266       -4.58962
H         -3.03163        4.72101       -4.24628
H         -0.32701        6.46108       -1.33591
H         -0.38010        6.97947       -3.02443
H         -1.70124        7.40908       -1.92932
H         -0.08781        3.96199       -2.06811
H         -1.12765        3.37214       -3.38800
H          0.02404        4.66175       -3.68435
H         -4.98245        3.99556       -2.50171
H         -3.73194        2.98657       -3.27561
H         -4.31197        1.41906       -1.59970

--Link1--
%chk=JID_7279.chk
%mem=8GB
%nprocshared=4
# B3LYP/6-311++G(d,p) empiricaldispersion=gd3bj scf=xqc pop=npa geom=check

CID_109919794_JID_7279_Energie_neutraal

0 1

--Link1--
%chk=JID_7279.chk
%mem=8GB
%nprocshared=4
# B3LYP/6-311++G(d,p) empiricaldispersion=gd3bj scf=xqc pop=npa geom=check

CID_109919794_JID_7279_Energie_kation

1 2

--Link1--
%chk=JID_7279.chk
%mem=8GB
%nprocshared=4
# B3LYP/6-311++G(d,p) empiricaldispersion=gd3bj scf=xqc pop=npa geom=check

CID_109919794_JID_7279_Energie_anion

-1 2
