%chk=JID_9661.chk
%mem=8GB
%nprocshared=4
# opt freq B3LYP/6-31G(d) empiricaldispersion=gd3bj scf=xqc

CID_145531546_JID_9661_neutraal

0 1
C          0.93951        0.06741       -0.04240
C          1.54036       -1.25960       -0.44632
C          3.44382        1.52647       -3.26803
O          2.14304        2.04277       -3.52302
C          1.78369        3.04101       -2.56774
C          0.37237        3.54213       -2.87503
O         -0.07205        4.51976       -1.91761
C         -0.56334        3.97266       -0.75612
C         -1.64881        3.09020       -0.80442
C         -2.14333        2.51800        0.36514
C         -1.57624        2.84803        1.59396
C         -0.53822        3.78646        1.67102
C         -0.03253        4.35821        0.48933
C          1.12198        5.30753        0.64142
N          1.51085        5.84634        1.76381
S          0.64859        5.61280        3.12708
O          1.76034        5.63419        4.22027
N          0.00986        4.11136        2.91558
N          1.85911        5.66870       -0.46183
H          0.25901       -0.06022        0.80461
H          0.37692        0.50055       -0.87439
H          1.72341        0.77247        0.24940
H          2.10605       -1.69400        0.38324
H          0.75503       -1.96478       -0.73444
H          2.21737       -1.13255       -1.29622
H          3.66613        0.76672       -4.02200
H          3.48403        1.05988       -2.27909
H          4.19196        2.32164       -3.34078
H          1.82972        2.62106       -1.55737
H          2.49321        3.87478       -2.61861
H          0.38177        4.03931       -3.85252
H         -0.32327        2.70314       -2.99048
H         -2.12253        2.84039       -1.75030
H         -2.97099        1.81392        0.31849
H         -1.96688        2.38166        2.49547
H         -0.40101        3.68659        3.73456
H          1.32249        5.74984       -1.32178
H          2.44023        6.48120       -0.27873

--Link1--
%chk=JID_9661.chk
%mem=8GB
%nprocshared=4
# B3LYP/6-311++G(d,p) empiricaldispersion=gd3bj scf=xqc pop=npa geom=check

CID_145531546_JID_9661_Energie_neutraal

0 1

--Link1--
%chk=JID_9661.chk
%mem=8GB
%nprocshared=4
# B3LYP/6-311++G(d,p) empiricaldispersion=gd3bj scf=xqc pop=npa geom=check

CID_145531546_JID_9661_Energie_kation

1 2

--Link1--
%chk=JID_9661.chk
%mem=8GB
%nprocshared=4
# B3LYP/6-311++G(d,p) empiricaldispersion=gd3bj scf=xqc pop=npa geom=check

CID_145531546_JID_9661_Energie_anion

-1 2
