%chk=JID_7441.chk
%mem=8GB
%nprocshared=4
# opt freq B3LYP/6-31G(d) empiricaldispersion=gd3bj scf=xqc

CID_152377464_JID_7441_neutraal

0 1
C          1.04660        0.05300        0.07085
C          0.82666        1.30995       -0.75331
C          1.27115        1.17548       -2.21218
C          0.58605        0.06996       -3.02360
C         -0.94761        0.05087       -2.97732
C         -1.64319        1.36904       -3.38016
C         -3.12038        1.36609       -2.96715
C         -3.94595        0.34375       -3.73678
C         -3.77715        0.40505       -5.25669
C         -2.39324        0.84182       -5.76144
O         -2.04789        0.59685       -6.92247
C         -1.50764        1.68606       -4.86886
O         -4.90728        1.02997       -5.88415
C         -4.98642        2.38323       -5.87695
O         -4.16928        3.14016       -5.37601
C         -6.23089        2.84346       -6.58679
C         -5.97450        3.00095       -8.07070
H          0.43235       -0.77866       -0.28549
H          0.78015        0.23795        1.11647
H          2.09617       -0.25633        0.03968
H         -0.22847        1.59792       -0.69824
H          1.39281        2.13036       -0.29573
H          1.11701        2.13858       -2.71347
H          2.35394        0.99775       -2.23789
H          0.92067        0.14669       -4.06487
H          0.94883       -0.90408       -2.67176
H         -1.29006       -0.76670       -3.62376
H         -1.25916       -0.22264       -1.96202
H         -1.17145        2.18911       -2.82696
H         -3.54085        2.36733       -3.10891
H         -3.20476        1.15929       -1.89290
H         -5.00215        0.45435       -3.46318
H         -3.64832       -0.65598       -3.39470
H         -3.85212       -0.63897       -5.59263
H         -0.47054        1.55933       -5.19659
H         -1.76323        2.73561       -5.04668
H         -7.04277        2.13236       -6.39885
H         -6.54234        3.79664       -6.14513
H         -5.68397        2.04703       -8.52286
H         -6.87474        3.36157       -8.57738
H         -5.16609        3.71620       -8.25543

--Link1--
%chk=JID_7441.chk
%mem=8GB
%nprocshared=4
# B3LYP/6-311++G(d,p) empiricaldispersion=gd3bj scf=xqc pop=npa geom=check

CID_152377464_JID_7441_Energie_neutraal

0 1

--Link1--
%chk=JID_7441.chk
%mem=8GB
%nprocshared=4
# B3LYP/6-311++G(d,p) empiricaldispersion=gd3bj scf=xqc pop=npa geom=check

CID_152377464_JID_7441_Energie_kation

1 2

--Link1--
%chk=JID_7441.chk
%mem=8GB
%nprocshared=4
# B3LYP/6-311++G(d,p) empiricaldispersion=gd3bj scf=xqc pop=npa geom=check

CID_152377464_JID_7441_Energie_anion

-1 2
