%chk=JID_10100.chk
%mem=8GB
%nprocshared=4
# opt freq B3LYP/6-31G(d) empiricaldispersion=gd3bj scf=xqc

CID_105850225_JID_10100_neutraal

0 1
C          0.97479        0.02556       -0.09333
C          1.03462        0.45999       -1.54546
O          1.33291       -0.64358       -2.39077
C          2.69964       -1.04096       -2.63335
C          3.89687       -0.23869       -2.06647
C          4.60787       -1.58940       -1.82106
C          3.20549       -2.23944       -1.79712
N          5.31714       -1.67596       -0.54170
C          6.65813       -1.72490       -0.31338
O          7.05351       -2.09964        0.78961
N          7.50542       -1.38137       -1.32410
C          8.95224       -1.22189       -1.14777
C          8.94579       -0.39803       -2.45948
C          7.41762       -0.24475       -2.23622
C          9.33482       -1.23917       -3.67601
O          9.73941        0.81945       -2.39351
C          9.55216        1.80454       -3.40025
C         10.52744        1.75114       -4.56873
O         10.33138        2.23049       -5.67552
O         11.69714        1.14556       -4.28765
H          0.28364       -0.81478        0.02930
H          0.64254        0.85119        0.54259
H          1.95155       -0.31072        0.26476
H          0.04851        0.83096       -1.84458
H          1.74064        1.28105       -1.70210
H          2.82231       -1.22915       -3.70906
H          4.38867        0.41964       -2.78876
H          3.71087        0.33383       -1.15263
H          5.19751       -1.95116       -2.67146
H          2.74423       -2.32397       -0.80682
H          3.13882       -3.21223       -2.29331
H          4.81665       -1.97539        0.28873
H          9.21856       -0.66174       -0.24504
H          9.49741       -2.16930       -1.17311
H          6.81162       -0.41794       -3.12778
H          7.10387        0.67977       -1.74065
H          9.08343       -0.72598       -4.60941
H         10.40984       -1.44716       -3.67613
H          8.81093       -2.20172       -3.68756
H          8.53474        1.74370       -3.80078
H          9.67365        2.78304       -2.92515
H         12.21684        1.20993       -5.11487

--Link1--
%chk=JID_10100.chk
%mem=8GB
%nprocshared=4
# B3LYP/6-311++G(d,p) empiricaldispersion=gd3bj scf=xqc pop=npa geom=check

CID_105850225_JID_10100_Energie_neutraal

0 1

--Link1--
%chk=JID_10100.chk
%mem=8GB
%nprocshared=4
# B3LYP/6-311++G(d,p) empiricaldispersion=gd3bj scf=xqc pop=npa geom=check

CID_105850225_JID_10100_Energie_kation

1 2

--Link1--
%chk=JID_10100.chk
%mem=8GB
%nprocshared=4
# B3LYP/6-311++G(d,p) empiricaldispersion=gd3bj scf=xqc pop=npa geom=check

CID_105850225_JID_10100_Energie_anion

-1 2
