%chk=JID_8396.chk
%mem=8GB
%nprocshared=4
# opt freq B3LYP/6-31G(d) empiricaldispersion=gd3bj scf=xqc

CID_80961253_JID_8396_neutraal

0 1
C          0.92807       -0.00268        0.06942
C         -0.17978        0.07545        1.10819
C         -0.28080        1.43965        1.83528
C         -0.50998        2.64647        0.88262
C         -1.80520        2.55861        0.07124
C         -0.46423        3.97857        1.64114
N         -1.38478        1.36559        2.82017
C         -0.93798        1.12281        4.12860
N         -1.11269       -0.11878        4.59305
C         -0.68563       -0.37269        5.84488
N         -0.10426        0.54489        6.64260
C          0.04021        1.77637        6.14909
C         -0.35778        2.11932        4.87982
N          0.58613        2.73094        7.00585
C         -0.76236       -1.80718        6.36213
C         -1.70153       -2.67631        5.50286
C          0.65071       -2.41439        6.31951
C         -1.28563       -1.82260        7.81018
H          0.72487        0.64762       -0.78609
H          1.01487       -1.02615       -0.30965
H          1.89251        0.28068        0.50221
H         -1.13426       -0.18144        0.63312
H          0.00126       -0.70869        1.85503
H          0.68100        1.61016        2.34069
H          0.32245        2.67603        0.16850
H         -2.68771        2.53257        0.71838
H         -1.90317        3.42830       -0.58810
H         -1.81895        1.66901       -0.56490
H          0.46469        4.06848        2.21414
H         -0.50200        4.82109        0.94201
H         -1.30728        4.08257        2.33169
H         -1.95281        0.53985        2.62068
H         -0.26099        3.12696        4.50700
H          0.84233        2.25431        7.86716
H          1.37291        3.21252        6.58801
H         -1.35144       -2.74767        4.46619
H         -1.76328       -3.69788        5.89559
H         -2.71779       -2.26556        5.48297
H          1.35061       -1.85234        6.94925
H          0.64766       -3.45137        6.67382
H          1.05459       -2.41043        5.29996
H         -0.62017       -1.27885        8.49078
H         -2.27661       -1.35867        7.87814
H         -1.36889       -2.84786        8.18895

--Link1--
%chk=JID_8396.chk
%mem=8GB
%nprocshared=4
# B3LYP/6-311++G(d,p) empiricaldispersion=gd3bj scf=xqc pop=npa geom=check

CID_80961253_JID_8396_Energie_neutraal

0 1

--Link1--
%chk=JID_8396.chk
%mem=8GB
%nprocshared=4
# B3LYP/6-311++G(d,p) empiricaldispersion=gd3bj scf=xqc pop=npa geom=check

CID_80961253_JID_8396_Energie_kation

1 2

--Link1--
%chk=JID_8396.chk
%mem=8GB
%nprocshared=4
# B3LYP/6-311++G(d,p) empiricaldispersion=gd3bj scf=xqc pop=npa geom=check

CID_80961253_JID_8396_Energie_anion

-1 2
