%chk=JID_4136.chk
%mem=8GB
%nprocshared=4
# opt freq B3LYP/6-31G(d) empiricaldispersion=gd3bj scf=xqc

CID_50923343_JID_4136_neutraal

0 1
C          0.95460        0.07664        0.04545
O          1.98735       -0.13539        1.00477
C          1.76295       -1.21750        1.81417
C          0.54769       -1.40211        2.48142
C          0.36807       -2.50274        3.31936
C          1.40455       -3.41370        3.50252
C          2.62606       -3.21918        2.85665
C          2.82438       -2.11396        2.01178
C          4.16612       -1.92400        1.33733
C          4.96911       -0.80880        1.96514
C          5.17247       -0.72706        3.47114
O          6.17211       -1.28535        2.62070
C          5.23855        0.39741        1.10951
O          6.30404        0.11053        0.20715
H          0.10217        0.59112        0.49960
H          0.63723       -0.86069       -0.42552
H          1.35668        0.72626       -0.73798
H         -0.26217       -0.68741        2.37416
H         -0.57827       -2.64470        3.83483
H          1.26618       -4.27194        4.15525
H          3.42977       -3.93450        3.02007
H          4.73593       -2.86165        1.37529
H          4.00255       -1.73623        0.26836
H          5.36899        0.23994        3.91844
H          4.63160       -1.40341        4.12096
H          4.36425        0.68781        0.52223
H          5.53347        1.26160        1.71380
H          6.99387       -0.31834        0.74736

--Link1--
%chk=JID_4136.chk
%mem=8GB
%nprocshared=4
# B3LYP/6-311++G(d,p) empiricaldispersion=gd3bj scf=xqc pop=npa geom=check

CID_50923343_JID_4136_Energie_neutraal

0 1

--Link1--
%chk=JID_4136.chk
%mem=8GB
%nprocshared=4
# B3LYP/6-311++G(d,p) empiricaldispersion=gd3bj scf=xqc pop=npa geom=check

CID_50923343_JID_4136_Energie_kation

1 2

--Link1--
%chk=JID_4136.chk
%mem=8GB
%nprocshared=4
# B3LYP/6-311++G(d,p) empiricaldispersion=gd3bj scf=xqc pop=npa geom=check

CID_50923343_JID_4136_Energie_anion

-1 2
