%chk=JID_4524.chk
%mem=8GB
%nprocshared=4
# opt freq B3LYP/6-31G(d) empiricaldispersion=gd3bj scf=xqc

CID_143458639_JID_4524_neutraal

0 1
C          0.99152       -0.06984        0.07106
C          0.76722       -1.12106       -1.00728
C          1.50051       -2.42347       -0.70901
C          1.42608       -3.42306       -1.86000
N          1.34675       -4.68718       -1.12643
N          0.74230       -4.51772        0.08391
C          0.83559       -3.25592        0.34688
C          0.92747       -5.81042       -1.97230
C          1.34728       -7.15627       -1.42087
C          2.51779       -7.78206       -1.87526
C          2.89992       -9.02592       -1.36865
C          2.12217       -9.65301       -0.39687
C          0.96507       -9.03505        0.07350
C          0.58079       -7.79280       -0.43402
H          0.59935       -0.39896        1.03795
H          0.48176        0.86061       -0.19865
H          2.05735        0.15054        0.18848
H         -0.31050       -1.29974       -1.10592
H          1.11831       -0.71645       -1.96413
H          2.53646       -2.24131       -0.39988
H          2.31090       -3.36937       -2.50195
H          0.52767       -3.26112       -2.46898
H          0.49295       -2.81251        1.29194
H         -0.16040       -5.79495       -2.12003
H          1.36630       -5.70832       -2.97404
H          3.14085       -7.29971       -2.62422
H          3.80820       -9.50196       -1.72768
H          2.42307      -10.61782        0.00174
H          0.36545       -9.51370        0.84269
H         -0.31178       -7.30651       -0.04592

--Link1--
%chk=JID_4524.chk
%mem=8GB
%nprocshared=4
# B3LYP/6-311++G(d,p) empiricaldispersion=gd3bj scf=xqc pop=npa geom=check

CID_143458639_JID_4524_Energie_neutraal

0 1

--Link1--
%chk=JID_4524.chk
%mem=8GB
%nprocshared=4
# B3LYP/6-311++G(d,p) empiricaldispersion=gd3bj scf=xqc pop=npa geom=check

CID_143458639_JID_4524_Energie_kation

1 2

--Link1--
%chk=JID_4524.chk
%mem=8GB
%nprocshared=4
# B3LYP/6-311++G(d,p) empiricaldispersion=gd3bj scf=xqc pop=npa geom=check

CID_143458639_JID_4524_Energie_anion

-1 2
