%chk=JID_2949.chk
%mem=8GB
%nprocshared=4
# opt freq B3LYP/6-31G(d) empiricaldispersion=gd3bj scf=xqc

CID_136935020_JID_2949_neutraal

0 1
C          0.95702       -0.05474        0.07181
C          0.73076        1.39878       -0.32732
C          1.30917        1.69456       -1.70583
C         -0.73516        1.77749       -0.31729
N         -1.66217        0.92044       -0.60392
N         -2.93434        1.42271       -0.57836
C         -4.06864        0.70849       -0.90651
N         -5.23677        1.21439       -0.66886
N         -6.29019        0.46823       -1.03540
O         -6.39299       -0.69709       -0.61513
O         -7.15018        0.99869       -1.75093
N         -3.73551       -0.49495       -1.46731
H          0.51690       -0.74680       -0.65469
H          0.50427       -0.26559        1.04674
H          2.02739       -0.27534        0.14055
H          1.22463        2.04362        0.40963
H          0.83058        1.08201       -2.47819
H          1.15345        2.74443       -1.97736
H          2.38531        1.49426       -1.72944
H         -0.96185        2.83886       -0.10594
H         -3.12338        2.33200       -0.16089
H         -2.76664       -0.72317       -1.24675
H         -4.37698       -1.26055       -1.27668

--Link1--
%chk=JID_2949.chk
%mem=8GB
%nprocshared=4
# B3LYP/6-311++G(d,p) empiricaldispersion=gd3bj scf=xqc pop=npa geom=check

CID_136935020_JID_2949_Energie_neutraal

0 1

--Link1--
%chk=JID_2949.chk
%mem=8GB
%nprocshared=4
# B3LYP/6-311++G(d,p) empiricaldispersion=gd3bj scf=xqc pop=npa geom=check

CID_136935020_JID_2949_Energie_kation

1 2

--Link1--
%chk=JID_2949.chk
%mem=8GB
%nprocshared=4
# B3LYP/6-311++G(d,p) empiricaldispersion=gd3bj scf=xqc pop=npa geom=check

CID_136935020_JID_2949_Energie_anion

-1 2
