%chk=JID_6404.chk
%mem=8GB
%nprocshared=4
# opt freq B3LYP/6-31G(d) empiricaldispersion=gd3bj scf=xqc

CID_89312127_JID_6404_neutraal

0 1
C          1.07153       -0.04758        0.05118
C          0.34331       -1.12092        0.41219
C         -1.12555       -1.07772        0.48235
C         -1.82166       -1.90625        1.28710
C         -3.26286       -1.86708        1.36930
C         -3.99265       -1.20974        0.46144
C         -3.34819       -0.44952       -0.66330
C         -1.87417       -0.08763       -0.39477
O         -5.36941       -1.21449        0.53569
C          1.12163       -2.35478        0.68565
C          1.95863       -2.44477        1.80831
C          2.68051       -3.61411        2.06206
C          2.55987       -4.69381        1.19266
C          1.73165       -4.62416        0.07872
C          1.01149       -3.45558       -0.17545
O          3.24470       -5.85403        1.40228
H          0.62227        0.91350       -0.17316
H          2.15485       -0.09157       -0.02543
H         -1.32774       -2.62644        1.93424
H         -3.74336       -2.41610        2.17310
H         -3.90263        0.47495       -0.86438
H         -3.41373       -1.06189       -1.57170
H         -1.37970        0.01531       -1.36908
H         -1.83553        0.89761        0.08900
H         -5.72151       -0.73088       -0.23103
H          2.04570       -1.60341        2.49198
H          3.32247       -3.66211        2.93557
H          1.64441       -5.47615       -0.58922
H          0.36253       -3.40765       -1.04663
H          3.77245       -5.76013        2.21196

--Link1--
%chk=JID_6404.chk
%mem=8GB
%nprocshared=4
# B3LYP/6-311++G(d,p) empiricaldispersion=gd3bj scf=xqc pop=npa geom=check

CID_89312127_JID_6404_Energie_neutraal

0 1

--Link1--
%chk=JID_6404.chk
%mem=8GB
%nprocshared=4
# B3LYP/6-311++G(d,p) empiricaldispersion=gd3bj scf=xqc pop=npa geom=check

CID_89312127_JID_6404_Energie_kation

1 2

--Link1--
%chk=JID_6404.chk
%mem=8GB
%nprocshared=4
# B3LYP/6-311++G(d,p) empiricaldispersion=gd3bj scf=xqc pop=npa geom=check

CID_89312127_JID_6404_Energie_anion

-1 2
