%chk=JID_2735.chk
%mem=8GB
%nprocshared=4
# opt freq B3LYP/6-31G(d) empiricaldispersion=gd3bj scf=xqc

CID_87475446_JID_2735_neutraal

0 1
C         -1.43100        0.32400       -0.23100
C         -0.85917       -0.98957        0.29522
C          0.61487       -1.15081       -0.06941
C          1.44594        0.04869        0.40015
C          0.86880        1.36191       -0.14156
C         -0.60391        1.52153        0.22772
N          2.82274       -0.09254       -0.05945
C          3.81570       -0.76299        0.61494
C          5.00123       -1.13382        0.11452
C          6.02056       -1.87102        0.89998
S          7.11946       -2.94780        0.25334
N          6.08739       -1.57379        2.22869
H         -2.46629        0.43833        0.10936
H         -1.45585        0.29702       -1.32738
H         -0.97008       -1.02450        1.38601
H         -1.43314       -1.83006       -0.11097
H          0.70832       -1.26950       -1.15707
H          1.00140       -2.07516        0.37689
H          1.42721        0.09174        1.49736
H          0.97375        1.39782       -1.23406
H          1.43969        2.21179        0.25220
H         -1.00007        2.43792       -0.22399
H         -0.69710        1.63479        1.31483
H          2.96241       -0.00397       -1.06435
H          3.54615       -0.99328        1.64349
H          5.24089       -0.95031       -0.92779
H          5.54193       -0.83857        2.65883
H          6.81353       -2.00661        2.78701

--Link1--
%chk=JID_2735.chk
%mem=8GB
%nprocshared=4
# B3LYP/6-311++G(d,p) empiricaldispersion=gd3bj scf=xqc pop=npa geom=check

CID_87475446_JID_2735_Energie_neutraal

0 1

--Link1--
%chk=JID_2735.chk
%mem=8GB
%nprocshared=4
# B3LYP/6-311++G(d,p) empiricaldispersion=gd3bj scf=xqc pop=npa geom=check

CID_87475446_JID_2735_Energie_kation

1 2

--Link1--
%chk=JID_2735.chk
%mem=8GB
%nprocshared=4
# B3LYP/6-311++G(d,p) empiricaldispersion=gd3bj scf=xqc pop=npa geom=check

CID_87475446_JID_2735_Energie_anion

-1 2
