%chk=JID_7790.chk
%mem=8GB
%nprocshared=4
# opt freq B3LYP/6-31G(d) empiricaldispersion=gd3bj scf=xqc

CID_113607246_JID_7790_neutraal

0 1
C          0.33400        1.00600       -0.17300
C          1.08392       -0.33458       -0.05598
C         -0.24178       -1.03416       -0.48263
C         -0.95976        0.21750        0.10623
C         -0.58398       -2.46215        0.11239
C          0.41080       -3.43951        0.32397
C          0.13061       -4.71765        0.83299
C         -1.19246       -5.03432        1.15208
C         -2.20560       -4.10051        0.95021
C         -1.90126       -2.83846        0.43478
N          1.21325       -5.60889        1.02733
C          0.97573       -6.93195        0.42721
C          2.25996       -7.53709       -0.13399
C          3.53912       -7.28912        0.66140
N          3.40430       -7.42145        2.11137
C          3.00916       -6.13816        2.71652
C          1.56035       -5.66374        2.47032
H          0.37432        1.44965       -1.17438
H          0.59807        1.76618        0.56607
H          1.92863       -0.46187       -0.73827
H          1.41321       -0.56349        0.96468
H         -0.33515       -1.05902       -1.58033
H         -1.20528        0.14278        1.17241
H         -1.84448        0.55759       -0.43859
H          1.44441       -3.20208        0.07693
H         -1.44430       -6.00677        1.56344
H         -3.23399       -4.35261        1.19403
H         -2.71089       -2.12754        0.27958
H          0.25943       -6.87461       -0.40427
H          0.53465       -7.61774        1.16282
H          2.10458       -8.61756       -0.24846
H          2.41962       -7.14769       -1.14803
H          4.28133       -8.02622        0.33129
H          3.96866       -6.31588        0.39077
H          2.71734       -8.13735        2.33724
H          3.70900       -5.35280        2.40312
H          3.14546       -6.23525        3.80037
H          1.47056       -4.66742        2.92524
H          0.86367       -6.32184        3.00706

--Link1--
%chk=JID_7790.chk
%mem=8GB
%nprocshared=4
# B3LYP/6-311++G(d,p) empiricaldispersion=gd3bj scf=xqc pop=npa geom=check

CID_113607246_JID_7790_Energie_neutraal

0 1

--Link1--
%chk=JID_7790.chk
%mem=8GB
%nprocshared=4
# B3LYP/6-311++G(d,p) empiricaldispersion=gd3bj scf=xqc pop=npa geom=check

CID_113607246_JID_7790_Energie_kation

1 2

--Link1--
%chk=JID_7790.chk
%mem=8GB
%nprocshared=4
# B3LYP/6-311++G(d,p) empiricaldispersion=gd3bj scf=xqc pop=npa geom=check

CID_113607246_JID_7790_Energie_anion

-1 2
