%chk=JID_1358.chk
%mem=8GB
%nprocshared=4
# opt freq B3LYP/6-31G(d) empiricaldispersion=gd3bj scf=xqc

CID_67174067_JID_1358_neutraal

0 1
C          1.08426       -0.00105        0.05385
C          0.19764       -0.18682        1.25712
C         -0.24232        0.87094        1.96608
C         -1.15382        0.89698        3.16478
N         -0.43938        1.36258        4.36648
C         -1.20999        1.07465        5.58725
C         -2.20288        2.21677        5.72988
C         -1.55584        3.38723        5.00411
C         -0.27489        2.82470        4.40142
S         -0.22003       -1.83235        1.65588
C          0.97545       -2.13029        2.98307
H          1.29616        1.05544       -0.14345
H          0.60855       -0.41236       -0.84315
H          2.04538       -0.50563        0.20106
H          0.07089        1.85798        1.63294
H         -2.02071        1.52912        2.93366
H         -1.55868       -0.10338        3.34925
H         -0.52115        1.07869        6.44165
H         -1.69560        0.09271        5.58316
H         -3.15622        1.96368        5.25159
H         -2.40510        2.44976        6.77998
H         -2.22731        3.76046        4.22269
H         -1.34151        4.21530        5.68754
H         -0.04131        3.27762        3.43287
H          0.56911        3.05888        5.06284
H          1.99603       -1.97221        2.62339
H          0.78589       -1.47062        3.83372
H          0.88364       -3.16555        3.32222

--Link1--
%chk=JID_1358.chk
%mem=8GB
%nprocshared=4
# B3LYP/6-311++G(d,p) empiricaldispersion=gd3bj scf=xqc pop=npa geom=check

CID_67174067_JID_1358_Energie_neutraal

0 1

--Link1--
%chk=JID_1358.chk
%mem=8GB
%nprocshared=4
# B3LYP/6-311++G(d,p) empiricaldispersion=gd3bj scf=xqc pop=npa geom=check

CID_67174067_JID_1358_Energie_kation

1 2

--Link1--
%chk=JID_1358.chk
%mem=8GB
%nprocshared=4
# B3LYP/6-311++G(d,p) empiricaldispersion=gd3bj scf=xqc pop=npa geom=check

CID_67174067_JID_1358_Energie_anion

-1 2
