%chk=JID_7882.chk
%mem=8GB
%nprocshared=4
# opt freq B3LYP/6-31G(d) empiricaldispersion=gd3bj scf=xqc

CID_65191165_JID_7882_neutraal

0 1
C          0.93391       -0.04683       -0.05864
C          0.31683        0.86508       -1.12307
C          0.78040        0.38724       -2.50563
C         -1.22868        0.88682       -1.01962
C         -1.76349        1.32142        0.37617
N         -1.40998        2.70438        0.71594
N         -1.80858        1.79284       -2.02177
C         -2.93122        1.51874       -2.77383
O         -3.69447        2.41456       -3.12452
C         -3.22901        0.10424       -3.13541
N         -2.21111       -0.63378       -3.65429
C         -2.48983       -1.92029       -3.96696
C         -3.72533       -2.51546       -3.75397
C         -4.74769       -1.73683       -3.20688
C         -4.50362       -0.39696       -2.90478
C         -3.92942       -3.89127       -4.08067
N         -4.08840       -5.01046       -4.33710
H          0.49827       -1.05119       -0.09228
H          0.79123        0.35758        0.94775
H          2.01484       -0.14436       -0.20906
H          0.71044        1.87968       -0.98266
H          0.44527       -0.63611       -2.70408
H          0.40179        1.03475       -3.30255
H          1.87394        0.39773       -2.57118
H         -1.60027       -0.12939       -1.18599
H         -2.85805        1.25138        0.37035
H         -1.41221        0.64580        1.16189
H         -1.82341        2.94588        1.61656
H         -0.40101        2.78318        0.84055
H         -1.73946        2.77606       -1.77647
H         -1.65876       -2.47133       -4.40282
H         -5.73038       -2.16232       -3.01478
H         -5.27757        0.23641       -2.48247

--Link1--
%chk=JID_7882.chk
%mem=8GB
%nprocshared=4
# B3LYP/6-311++G(d,p) empiricaldispersion=gd3bj scf=xqc pop=npa geom=check

CID_65191165_JID_7882_Energie_neutraal

0 1

--Link1--
%chk=JID_7882.chk
%mem=8GB
%nprocshared=4
# B3LYP/6-311++G(d,p) empiricaldispersion=gd3bj scf=xqc pop=npa geom=check

CID_65191165_JID_7882_Energie_kation

1 2

--Link1--
%chk=JID_7882.chk
%mem=8GB
%nprocshared=4
# B3LYP/6-311++G(d,p) empiricaldispersion=gd3bj scf=xqc pop=npa geom=check

CID_65191165_JID_7882_Energie_anion

-1 2
