%chk=JID_7469.chk
%mem=8GB
%nprocshared=4
# opt freq B3LYP/6-31G(d) empiricaldispersion=gd3bj scf=xqc

CID_84149189_JID_7469_neutraal

0 1
C          0.96474        0.07340       -0.05804
C          0.29065        0.91719       -1.14464
C          0.69203        0.42890       -2.53797
C         -1.22097        0.95474       -1.00254
C         -1.88906        2.18840       -1.00351
C         -3.28233        2.24633       -0.89341
C         -4.03876        1.07889       -0.73816
C         -3.37282       -0.15392       -0.74261
C         -1.98341       -0.21540       -0.88477
C         -5.53615        1.11899       -0.55699
C         -5.98703        1.08124        0.90423
C         -5.76573        2.42332        1.59029
O         -6.58993        3.32663        1.64182
O         -4.56393        2.54601        2.18142
O         -7.39220        0.77405        0.92884
O         -3.92532        3.45728       -0.85452
C         -3.81451        4.14096       -2.10327
H          0.71565       -0.98934       -0.14661
H          0.66275        0.40744        0.94078
H          2.05455        0.16224       -0.12591
H          0.67454        1.93987       -1.03059
H          0.36785       -0.60244       -2.71595
H          0.24578        1.05717       -3.31706
H          1.77977        0.46485       -2.66160
H         -1.32072        3.11200       -1.07397
H         -3.93311       -1.08074       -0.63482
H         -1.50359       -1.19145       -0.89435
H         -5.96093        1.99537       -1.06390
H         -5.97398        0.26578       -1.09381
H         -5.48423        0.29400        1.47528
H         -4.54768        3.46600        2.51596
H         -7.85971        1.62164        0.78995
H         -4.07721        3.48796       -2.94354
H         -4.52320        4.97454       -2.09028
H         -2.81049        4.55548       -2.23768

--Link1--
%chk=JID_7469.chk
%mem=8GB
%nprocshared=4
# B3LYP/6-311++G(d,p) empiricaldispersion=gd3bj scf=xqc pop=npa geom=check

CID_84149189_JID_7469_Energie_neutraal

0 1

--Link1--
%chk=JID_7469.chk
%mem=8GB
%nprocshared=4
# B3LYP/6-311++G(d,p) empiricaldispersion=gd3bj scf=xqc pop=npa geom=check

CID_84149189_JID_7469_Energie_kation

1 2

--Link1--
%chk=JID_7469.chk
%mem=8GB
%nprocshared=4
# B3LYP/6-311++G(d,p) empiricaldispersion=gd3bj scf=xqc pop=npa geom=check

CID_84149189_JID_7469_Energie_anion

-1 2
