%chk=JID_2047.chk
%mem=8GB
%nprocshared=4
# opt freq B3LYP/6-31G(d) empiricaldispersion=gd3bj scf=xqc

CID_142222035_JID_2047_neutraal

0 1
C          0.95594        0.00327        0.08971
C          0.04438        1.17739        0.34782
C         -0.07849        2.13203       -0.59708
C         -0.90256        3.32964       -0.53533
C         -2.20620        3.24131       -0.84727
C         -0.19636        4.58919       -0.07217
C          1.04227        4.96242       -0.89691
C          1.35983        6.39795       -0.48611
C          0.05858        6.98213        0.06004
C         -0.99534        5.89729       -0.12943
C         -0.65585        1.23765        1.62666
C         -0.54409        0.36409        2.63643
H          1.41221        0.04415       -0.90580
H          0.40053       -0.93917        0.14837
H          1.77373       -0.02034        0.81816
H          0.50199        2.05061       -1.51585
H         -2.87482        4.09314       -0.79922
H         -2.64896        2.29832       -1.15715
H          0.11578        4.43158        0.97118
H          1.89192        4.29860       -0.70536
H          0.82218        4.92331       -1.97133
H          1.74134        6.97563       -1.33405
H          2.12992        6.41278        0.29378
H         -0.22105        7.90883       -0.45076
H          0.17508        7.21508        1.12492
H         -1.47496        6.02676       -1.10794
H         -1.77216        5.94970        0.64016
H         -1.32747        2.08145        1.77830
H         -1.11079        0.51426        3.55035
H          0.10068       -0.50613        2.59815

--Link1--
%chk=JID_2047.chk
%mem=8GB
%nprocshared=4
# B3LYP/6-311++G(d,p) empiricaldispersion=gd3bj scf=xqc pop=npa geom=check

CID_142222035_JID_2047_Energie_neutraal

0 1

--Link1--
%chk=JID_2047.chk
%mem=8GB
%nprocshared=4
# B3LYP/6-311++G(d,p) empiricaldispersion=gd3bj scf=xqc pop=npa geom=check

CID_142222035_JID_2047_Energie_kation

1 2

--Link1--
%chk=JID_2047.chk
%mem=8GB
%nprocshared=4
# B3LYP/6-311++G(d,p) empiricaldispersion=gd3bj scf=xqc pop=npa geom=check

CID_142222035_JID_2047_Energie_anion

-1 2
