%chk=JID_556.chk
%mem=8GB
%nprocshared=4
# opt freq B3LYP/6-31G(d) empiricaldispersion=gd3bj scf=xqc

CID_10920589_JID_556_neutraal

0 1
C          0.93210        0.02501       -0.06903
C          0.58679        1.50725       -0.07372
C          0.96829        2.15671       -1.39571
C          0.42542        1.39240       -2.58796
C         -1.09458        1.39240       -2.58796
N         -2.35554        1.39240       -2.58796
C         -0.27625       -0.91773       -0.15033
C          0.12174       -2.39106       -0.06241
C          0.38967       -2.81920        1.35796
O         -0.10153       -3.82569        1.86004
H          1.42273       -0.17093        0.89389
H          1.68964       -0.23688       -0.81620
H         -0.47425        1.66741        0.14944
H          1.14618        2.01391        0.72271
H          0.60716        3.19249       -1.40481
H          2.06149        2.20394       -1.47471
H          0.75348        1.89741       -3.50507
H          0.79614        0.36681       -2.66188
H         -0.98964       -0.67423        0.64635
H         -0.79303       -0.77346       -1.10159
H         -0.69715       -3.01030       -0.44596
H          1.01314       -2.59892       -0.66277
H          1.12147       -2.21600        1.91992

--Link1--
%chk=JID_556.chk
%mem=8GB
%nprocshared=4
# B3LYP/6-311++G(d,p) empiricaldispersion=gd3bj scf=xqc pop=npa geom=check

CID_10920589_JID_556_Energie_neutraal

0 1

--Link1--
%chk=JID_556.chk
%mem=8GB
%nprocshared=4
# B3LYP/6-311++G(d,p) empiricaldispersion=gd3bj scf=xqc pop=npa geom=check

CID_10920589_JID_556_Energie_kation

1 2

--Link1--
%chk=JID_556.chk
%mem=8GB
%nprocshared=4
# B3LYP/6-311++G(d,p) empiricaldispersion=gd3bj scf=xqc pop=npa geom=check

CID_10920589_JID_556_Energie_anion

-1 2
