%chk=JID_49.chk
%mem=8GB
%nprocshared=4
# opt freq B3LYP/6-31G(d) empiricaldispersion=gd3bj scf=xqc

CID_150739533_JID_49_neutraal

0 1
C          0.94381       -0.04519       -0.06928
C          0.55247       -1.28295       -0.85724
C          1.04115       -2.60921       -0.26029
N          0.40812       -2.92539        1.03693
N          0.59519       -4.34178        1.34289
N          1.38761       -3.98419        2.49944
N          1.31408       -2.59523        2.11228
C          0.67481       -1.75936        3.14839
C         -0.85159       -1.75850        3.36209
C         -1.42392       -3.02193        3.98324
H          0.36348        0.03600        0.85243
H          0.73838        0.85407       -0.65933
H          2.00929       -0.05074        0.17964
H         -0.53776       -1.30636       -0.97602
H          0.97151       -1.19375       -1.86732
H          0.76118       -3.38419       -0.98802
H          2.13931       -2.61810       -0.21119
H          1.21483       -4.78782        0.66214
H          0.83808       -4.16862        3.34035
H          1.16790       -1.94948        4.11198
H          0.95129       -0.72505        2.90790
H         -1.08446       -0.92417        4.03667
H         -1.37489       -1.53516        2.42519
H         -0.87210       -3.30371        4.88531
H         -2.46851       -2.85606        4.26727
H         -1.41093       -3.86228        3.28547

--Link1--
%chk=JID_49.chk
%mem=8GB
%nprocshared=4
# B3LYP/6-311++G(d,p) empiricaldispersion=gd3bj scf=xqc pop=npa geom=check

CID_150739533_JID_49_Energie_neutraal

0 1

--Link1--
%chk=JID_49.chk
%mem=8GB
%nprocshared=4
# B3LYP/6-311++G(d,p) empiricaldispersion=gd3bj scf=xqc pop=npa geom=check

CID_150739533_JID_49_Energie_kation

1 2

--Link1--
%chk=JID_49.chk
%mem=8GB
%nprocshared=4
# B3LYP/6-311++G(d,p) empiricaldispersion=gd3bj scf=xqc pop=npa geom=check

CID_150739533_JID_49_Energie_anion

-1 2
