%chk=JID_10110.chk
%mem=8GB
%nprocshared=4
# opt freq B3LYP/6-31G(d) empiricaldispersion=gd3bj scf=xqc

CID_65384617_JID_10110_neutraal

0 1
C          0.94179       -0.08100        0.00709
C          1.95250       -0.34608       -1.09928
C          2.70194       -1.67965       -0.97037
N          1.79641       -2.82813       -1.14348
C          2.23900       -3.76061       -2.18007
C          1.04179       -4.27708       -2.98129
C          0.13321       -5.28289       -2.27441
C         -0.46065       -4.87998       -0.88913
C          0.70667       -4.77888        0.12507
C          1.51481       -3.47621        0.14089
C         -1.31591       -3.56990       -0.99192
N         -2.56644       -3.73222       -1.75208
N         -1.31753       -6.05314       -0.54059
C         -2.00453       -5.99177        0.76011
C         -3.54289       -6.18780        0.63609
N         -3.96914       -7.16159       -0.40130
C         -5.41494       -7.04203       -0.66508
C         -5.75883       -5.80623       -1.49265
C         -3.61218       -8.53356        0.00594
C         -3.59641       -9.50246       -1.17311
H          0.09178       -0.76618       -0.05381
H          0.54850        0.93693       -0.08172
H          1.40349       -0.17988        0.99439
H          1.44727       -0.29439       -2.07165
H          2.69250        0.46366       -1.09017
H          3.49206       -1.67377       -1.73179
H          3.23432       -1.71402       -0.01107
H          2.84549       -4.58018       -1.77590
H          2.87624       -3.24860       -2.91252
H          1.42919       -4.76472       -3.88597
H          0.44493       -3.43027       -3.34327
H         -0.67837       -5.52814       -2.97378
H          0.70279       -6.21765       -2.16217
H          0.34169       -4.91285        1.15074
H          1.39708       -5.61940       -0.03409
H          0.97427       -2.76659        0.77779
H          2.45553       -3.69499        0.66511
H         -1.58122       -3.21766        0.01098
H         -0.75343       -2.76191       -1.46492
H         -3.00061       -2.81869       -1.87086
H         -2.34746       -4.06664       -2.68884
H         -2.07256       -6.10287       -1.23885
H         -1.58978       -6.78676        1.38979
H         -1.83362       -5.05287        1.29695
H         -3.95476       -6.45775        1.61723
H         -3.94718       -5.19956        0.39285
H         -5.76981       -7.90001       -1.24547
H         -5.98916       -7.04130        0.26998
H         -5.16516       -5.77094       -2.41230
H         -6.81557       -5.83423       -1.77917
H         -5.59787       -4.87655       -0.94015
H         -2.60213       -8.55929        0.42894
H         -4.28696       -8.90088        0.78935
H         -2.94620       -9.13518       -1.97429
H         -3.20964      -10.47447       -0.84891
H         -4.59393       -9.67134       -1.58764

--Link1--
%chk=JID_10110.chk
%mem=8GB
%nprocshared=4
# B3LYP/6-311++G(d,p) empiricaldispersion=gd3bj scf=xqc pop=npa geom=check

CID_65384617_JID_10110_Energie_neutraal

0 1

--Link1--
%chk=JID_10110.chk
%mem=8GB
%nprocshared=4
# B3LYP/6-311++G(d,p) empiricaldispersion=gd3bj scf=xqc pop=npa geom=check

CID_65384617_JID_10110_Energie_kation

1 2

--Link1--
%chk=JID_10110.chk
%mem=8GB
%nprocshared=4
# B3LYP/6-311++G(d,p) empiricaldispersion=gd3bj scf=xqc pop=npa geom=check

CID_65384617_JID_10110_Energie_anion

-1 2
