%chk=JID_4472.chk
%mem=8GB
%nprocshared=4
# opt freq B3LYP/6-31G(d) empiricaldispersion=gd3bj scf=xqc

CID_118049146_JID_4472_neutraal

0 1
C          1.06044       -0.04277       -0.06721
C          0.76160        1.11961       -1.00086
C          1.10076        0.83102       -2.46527
C          0.36098       -0.35328       -3.09589
C         -1.16812       -0.28039       -3.04602
C         -1.79283        0.95457       -3.70271
C         -1.45538        1.16247       -5.18449
C         -1.85530        0.01660       -6.12067
C         -3.33523       -0.22970       -6.16534
C         -4.05124       -1.24317       -5.56096
C         -5.44783       -1.15332       -5.83242
C         -5.75760       -0.08337       -6.63987
S         -4.36133        0.79923       -7.07274
N         -6.98063        0.27917       -7.07323
H          0.41428       -0.90081       -0.27412
H          0.88998        0.25695        0.97183
H          2.10286       -0.36333       -0.16024
H         -0.29064        1.40692       -0.90111
H          1.34989        1.98654       -0.67632
H          0.90850        1.73624       -3.05313
H          2.17902        0.64377       -2.54719
H          0.68674       -0.45008       -4.13848
H          0.67890       -1.28054       -2.60394
H         -1.57159       -1.18619       -3.51279
H         -1.49910       -0.32028       -2.00137
H         -2.88146        0.89641       -3.58295
H         -1.48650        1.85154       -3.15131
H         -1.93874        2.09055       -5.51551
H         -0.37776        1.33559       -5.28900
H         -1.49887        0.24939       -7.13268
H         -1.33712       -0.90510       -5.83099
H         -3.59823       -2.01348       -4.94908
H         -6.18601       -1.84777       -5.45316
H         -7.09637        1.19925       -7.48695
H         -7.81464       -0.08126       -6.62215

--Link1--
%chk=JID_4472.chk
%mem=8GB
%nprocshared=4
# B3LYP/6-311++G(d,p) empiricaldispersion=gd3bj scf=xqc pop=npa geom=check

CID_118049146_JID_4472_Energie_neutraal

0 1

--Link1--
%chk=JID_4472.chk
%mem=8GB
%nprocshared=4
# B3LYP/6-311++G(d,p) empiricaldispersion=gd3bj scf=xqc pop=npa geom=check

CID_118049146_JID_4472_Energie_kation

1 2

--Link1--
%chk=JID_4472.chk
%mem=8GB
%nprocshared=4
# B3LYP/6-311++G(d,p) empiricaldispersion=gd3bj scf=xqc pop=npa geom=check

CID_118049146_JID_4472_Energie_anion

-1 2
