%chk=JID_6214.chk
%mem=8GB
%nprocshared=4
# opt freq B3LYP/6-31G(d) empiricaldispersion=gd3bj scf=xqc

CID_105478118_JID_6214_neutraal

0 1
C         -2.13100       -0.04600       -0.06100
N         -0.68729       -0.11119       -0.05100
C          0.15483       -1.21348       -0.02777
C          1.43651       -0.66512       -0.05694
C          1.24426        0.72863       -0.12034
N         -0.04011        1.06688       -0.11065
C          2.84203       -1.29583       -0.04430
C          3.05755       -2.61701        0.66673
C          3.06144       -2.57654       -0.82493
N          3.96332       -0.34194       -0.00495
C         -0.32019       -2.64700        0.03111
C         -1.28197       -3.04319       -1.09546
C         -1.69015       -4.50344       -0.94174
O         -2.26046       -4.72655        0.34780
C         -1.32630       -4.49160        1.40091
C         -0.87373       -3.03636        1.40757
H         -2.44837        0.90894        0.36886
H         -2.46609       -0.11096       -1.09894
H         -2.55452       -0.84936        0.53760
H          1.98905        1.51162       -0.17713
H          4.00485       -2.78727        1.16774
H          2.23220       -3.07480        1.19253
H          2.23497       -2.99419       -1.38365
H          4.00843       -2.70868       -1.33772
H          3.98575        0.11551        0.90574
H          4.85634       -0.82120       -0.09795
H          0.55024       -3.28919       -0.12128
H         -2.19230       -2.43933       -1.06390
H         -0.81883       -2.88163       -2.07569
H         -2.44681       -4.75911       -1.69032
H         -0.83818       -5.17755       -1.08922
H         -0.47479       -5.17388        1.29322
H         -1.82190       -4.73114        2.34712
H         -0.11863       -2.88446        2.18768
H         -1.73012       -2.40908        1.67147

--Link1--
%chk=JID_6214.chk
%mem=8GB
%nprocshared=4
# B3LYP/6-311++G(d,p) empiricaldispersion=gd3bj scf=xqc pop=npa geom=check

CID_105478118_JID_6214_Energie_neutraal

0 1

--Link1--
%chk=JID_6214.chk
%mem=8GB
%nprocshared=4
# B3LYP/6-311++G(d,p) empiricaldispersion=gd3bj scf=xqc pop=npa geom=check

CID_105478118_JID_6214_Energie_kation

1 2

--Link1--
%chk=JID_6214.chk
%mem=8GB
%nprocshared=4
# B3LYP/6-311++G(d,p) empiricaldispersion=gd3bj scf=xqc pop=npa geom=check

CID_105478118_JID_6214_Energie_anion

-1 2
