%chk=JID_7227.chk
%mem=8GB
%nprocshared=4
# opt freq B3LYP/6-31G(d) empiricaldispersion=gd3bj scf=xqc

CID_140344766_JID_7227_neutraal

0 1
C          0.95537        0.08029        0.03951
C          0.30215       -0.74963       -0.78168
C         -1.13859       -0.84450       -0.82251
C         -1.78804       -1.66846       -1.65844
C         -3.23117       -1.76383       -1.70754
C         -3.87492       -2.56900       -2.56764
C         -5.32122       -2.65770       -2.62513
C         -6.08291       -3.40003       -3.45770
C         -7.55227       -3.27389       -3.31887
C         -8.31368       -4.36750       -2.88328
C         -9.69909       -4.25495       -2.74713
C        -10.33445       -3.04999       -3.04298
C         -9.58736       -1.95613       -3.47675
C         -8.20217       -2.06635       -3.61528
C         -5.50711       -4.32704       -4.47165
O         -4.40368       -4.84227       -4.47054
O         -6.36632       -4.57169       -5.47887
H          0.43746        0.73758        0.73062
H          2.04030        0.11756        0.03508
H          0.87403       -1.38591       -1.45424
H         -1.69722       -0.20852       -0.13891
H         -1.22678       -2.30221       -2.34286
H         -3.79160       -1.14383       -1.01089
H         -3.29326       -3.17527       -3.25731
H         -5.83414       -2.02443       -1.89900
H         -7.83390       -5.31498       -2.64820
H        -10.28233       -5.10891       -2.41227
H        -11.41313       -2.96458       -2.93885
H        -10.08343       -1.01798       -3.71183
H         -7.63459       -1.20663       -3.96462
H         -5.87066       -5.17802       -6.06575

--Link1--
%chk=JID_7227.chk
%mem=8GB
%nprocshared=4
# B3LYP/6-311++G(d,p) empiricaldispersion=gd3bj scf=xqc pop=npa geom=check

CID_140344766_JID_7227_Energie_neutraal

0 1

--Link1--
%chk=JID_7227.chk
%mem=8GB
%nprocshared=4
# B3LYP/6-311++G(d,p) empiricaldispersion=gd3bj scf=xqc pop=npa geom=check

CID_140344766_JID_7227_Energie_kation

1 2

--Link1--
%chk=JID_7227.chk
%mem=8GB
%nprocshared=4
# B3LYP/6-311++G(d,p) empiricaldispersion=gd3bj scf=xqc pop=npa geom=check

CID_140344766_JID_7227_Energie_anion

-1 2
