%chk=JID_2161.chk
%mem=8GB
%nprocshared=4
# opt freq B3LYP/6-31G(d) empiricaldispersion=gd3bj scf=xqc

CID_146883633_JID_2161_neutraal

0 1
C          1.07664       -0.03918       -0.05089
C          1.19710       -0.92488        1.17622
C          1.82755       -0.24865        2.39964
C          0.98692        0.88464        2.99857
C          1.24574        1.13921        4.51435
C          2.71848        1.51254        4.77467
C          2.81751        2.93911        4.22230
C          1.40326        3.18110        3.67141
C          0.54454        2.48639        4.72353
C          1.12697        2.31474        2.41211
O          2.11900        2.49947        1.41613
O          1.12458        4.54444        3.48852
H          0.37324        0.78128        0.11468
H          0.70390       -0.62366       -0.89849
H          2.04817        0.37726       -0.33353
H          0.20587       -1.31276        1.43966
H          1.81053       -1.79546        0.91336
H          1.94151       -1.02973        3.16313
H          2.84230        0.08101        2.15545
H         -0.07236        0.59890        2.91819
H          0.88304        0.33050        5.15323
H          3.43096        0.83341        4.29960
H          2.92837        1.51640        5.85056
H          3.60473        3.04895        3.47123
H          3.05266        3.64953        5.02446
H          0.66909        2.90320        5.72909
H         -0.52290        2.48090        4.47761
H          0.17599        2.62051        1.95916
H          2.94929        2.09240        1.71119
H          1.53397        4.79806        2.64010

--Link1--
%chk=JID_2161.chk
%mem=8GB
%nprocshared=4
# B3LYP/6-311++G(d,p) empiricaldispersion=gd3bj scf=xqc pop=npa geom=check

CID_146883633_JID_2161_Energie_neutraal

0 1

--Link1--
%chk=JID_2161.chk
%mem=8GB
%nprocshared=4
# B3LYP/6-311++G(d,p) empiricaldispersion=gd3bj scf=xqc pop=npa geom=check

CID_146883633_JID_2161_Energie_kation

1 2

--Link1--
%chk=JID_2161.chk
%mem=8GB
%nprocshared=4
# B3LYP/6-311++G(d,p) empiricaldispersion=gd3bj scf=xqc pop=npa geom=check

CID_146883633_JID_2161_Energie_anion

-1 2
