%chk=JID_8789.chk
%mem=8GB
%nprocshared=4
# opt freq B3LYP/6-31G(d) empiricaldispersion=gd3bj scf=xqc

CID_117094981_JID_8789_neutraal

0 1
C          0.91923        0.03766       -0.04536
O          0.53055        1.27372        0.55533
C          1.30008        1.63788        1.61891
O          2.22347        0.97364        2.07551
C          0.86221        2.96996        2.17867
C          1.05317        4.15399        1.25899
C          2.11976        4.23256        0.35783
C          2.28335        5.36424       -0.44653
C          1.41431        6.45463       -0.35048
C          0.36439        6.38886        0.55757
C          0.18682        5.25137        1.35758
O          1.71413        7.47294       -1.20093
C          1.14899        8.78188       -1.11331
C          1.38936        9.50207        0.21471
C          0.78477       10.89638        0.16453
O         -0.59402       10.83101       -0.20109
C         -0.78261       10.31473       -1.51888
C         -0.29372        8.87694       -1.61016
H          0.27893       -0.13214       -0.91537
H          0.77595       -0.78871        0.65767
H          1.95867        0.08333       -0.38553
H         -0.19163        2.86823        2.46642
H          1.42686        3.15377        3.10076
H          2.83931        3.42191        0.26426
H          3.11130        5.40059       -1.15130
H         -0.34302        7.19874        0.68317
H         -0.64020        5.23547        2.06537
H          1.73777        9.34747       -1.85034
H          0.93369        8.95617        1.04475
H          2.46217        9.55067        0.43339
H          0.84807       11.36589        1.15136
H          1.32129       11.54118       -0.54161
H         -0.26667       10.95892       -2.24068
H         -1.85261       10.35958       -1.74563
H         -0.36717        8.50776       -2.63950
H         -0.95608        8.24269       -1.01670

--Link1--
%chk=JID_8789.chk
%mem=8GB
%nprocshared=4
# B3LYP/6-311++G(d,p) empiricaldispersion=gd3bj scf=xqc pop=npa geom=check

CID_117094981_JID_8789_Energie_neutraal

0 1

--Link1--
%chk=JID_8789.chk
%mem=8GB
%nprocshared=4
# B3LYP/6-311++G(d,p) empiricaldispersion=gd3bj scf=xqc pop=npa geom=check

CID_117094981_JID_8789_Energie_kation

1 2

--Link1--
%chk=JID_8789.chk
%mem=8GB
%nprocshared=4
# B3LYP/6-311++G(d,p) empiricaldispersion=gd3bj scf=xqc pop=npa geom=check

CID_117094981_JID_8789_Energie_anion

-1 2
