%chk=JID_4659.chk
%mem=8GB
%nprocshared=4
# opt freq B3LYP/6-31G(d) empiricaldispersion=gd3bj scf=xqc

CID_143329966_JID_4659_neutraal

0 1
C          0.90653        0.01395       -0.03269
C          0.81205       -1.25787        0.81103
C          1.29491       -1.02154        2.23840
C          0.43676       -0.83519        3.28257
C         -1.08569       -0.78402        3.15300
C         -1.82785       -2.03774        3.65570
C         -1.96212       -2.19763        5.18128
C         -2.65388       -1.02933        5.90288
C         -4.13062       -0.90224        5.53977
S         -2.51112       -1.25691        7.71443
C          0.87419       -0.54862        4.64921
C          1.62248       -1.36683        5.40041
C          2.75571       -0.94606        2.41043
C          3.70418       -1.34552        1.55370
H          0.32387        0.82685        0.41361
H          0.50926       -0.17298       -1.03567
H          1.94060        0.35466       -0.14293
H         -0.21899       -1.62387        0.78552
H          1.37608       -2.06717        0.33368
H         -1.46851        0.11652        3.64673
H         -1.37653       -0.63263        2.10857
H         -2.83454       -2.03690        3.22007
H         -1.33455       -2.93398        3.25719
H         -2.52469       -3.12275        5.36939
H         -0.96876       -2.37005        5.60662
H         -2.14795       -0.08600        5.68203
H         -4.68627       -1.81806        5.77190
H         -4.60265       -0.07133        6.07651
H         -4.25559       -0.70122        4.47109
H         -3.16949       -2.42272        7.78247
H          0.50868        0.38041        5.08347
H          1.88340       -1.09750        6.41871
H          1.98100       -2.32022        5.02424
H          3.11309       -0.50947        3.34167
H          4.75254       -1.22651        1.81264
H          3.49569       -1.80326        0.59424

--Link1--
%chk=JID_4659.chk
%mem=8GB
%nprocshared=4
# B3LYP/6-311++G(d,p) empiricaldispersion=gd3bj scf=xqc pop=npa geom=check

CID_143329966_JID_4659_Energie_neutraal

0 1

--Link1--
%chk=JID_4659.chk
%mem=8GB
%nprocshared=4
# B3LYP/6-311++G(d,p) empiricaldispersion=gd3bj scf=xqc pop=npa geom=check

CID_143329966_JID_4659_Energie_kation

1 2

--Link1--
%chk=JID_4659.chk
%mem=8GB
%nprocshared=4
# B3LYP/6-311++G(d,p) empiricaldispersion=gd3bj scf=xqc pop=npa geom=check

CID_143329966_JID_4659_Energie_anion

-1 2
