%chk=JID_9391.chk
%mem=8GB
%nprocshared=4
# opt freq B3LYP/6-31G(d) empiricaldispersion=gd3bj scf=xqc

CID_89878376_JID_9391_neutraal

0 1
C          0.95061        0.07536        0.04337
C          0.63557        0.81409        1.34119
C          1.13218        2.29380        1.41522
C          0.47876        3.07711        0.24972
C          0.60163        2.88326        2.74411
C          2.66423        2.46773        1.42531
C          3.54022        1.42413        1.77870
C          4.93597        1.58417        1.81511
C          5.47393        2.82572        1.51554
C          4.63375        3.88820        1.18192
C          3.24930        3.71230        1.14063
O          5.60030        0.44715        2.15373
C          7.02577        0.30329        2.27012
C          7.78102        0.52295        0.94097
C          7.31893       -0.43095       -0.16174
C          7.46679       -1.88733        0.26241
C          6.76615       -2.16062        1.58772
C          7.21988       -1.18517        2.67740
C          7.58878        1.15679        3.41714
H          0.42481        0.51980       -0.80687
H          0.62003       -0.96576        0.12158
H          2.02019        0.06814       -0.18071
H         -0.45636        0.79809        1.46483
H          1.02473        0.23424        2.18684
H         -0.59026        2.84693        0.17029
H          0.55117        4.16173        0.38589
H          0.94819        2.83577       -0.71069
H          1.01640        2.35136        3.60868
H          0.86569        3.94177        2.85403
H         -0.49074        2.81204        2.80134
H          3.15546        0.44198        2.04067
H          6.53677        3.02065        1.53325
H          5.05961        4.86304        0.95731
H          2.63766        4.57657        0.89555
H          7.66824        1.54326        0.56901
H          8.85726        0.37955        1.10610
H          7.90947       -0.25433       -1.06813
H          6.27344       -0.22523       -0.42044
H          8.53213       -2.13112        0.35803
H          7.05905       -2.54304       -0.51506
H          6.97456       -3.18817        1.90708
H          5.68048       -2.08784        1.45047
H          8.27538       -1.37913        2.90879
H          6.64388       -1.40156        3.58651
H          7.58413        2.22473        3.19098
H          6.99077        1.02671        4.32638
H          8.62568        0.88486        3.64359

--Link1--
%chk=JID_9391.chk
%mem=8GB
%nprocshared=4
# B3LYP/6-311++G(d,p) empiricaldispersion=gd3bj scf=xqc pop=npa geom=check

CID_89878376_JID_9391_Energie_neutraal

0 1

--Link1--
%chk=JID_9391.chk
%mem=8GB
%nprocshared=4
# B3LYP/6-311++G(d,p) empiricaldispersion=gd3bj scf=xqc pop=npa geom=check

CID_89878376_JID_9391_Energie_kation

1 2

--Link1--
%chk=JID_9391.chk
%mem=8GB
%nprocshared=4
# B3LYP/6-311++G(d,p) empiricaldispersion=gd3bj scf=xqc pop=npa geom=check

CID_89878376_JID_9391_Energie_anion

-1 2
