%chk=JID_3971.chk
%mem=8GB
%nprocshared=4
# opt freq B3LYP/6-31G(d) empiricaldispersion=gd3bj scf=xqc

CID_130648050_JID_3971_neutraal

0 1
C         -1.43100        0.32400       -0.23100
C         -1.02006       -1.09828        0.12513
C          0.42320       -1.39032       -0.28168
C          1.41969       -0.37676        0.32790
C          0.97804        1.05248       -0.05640
C         -0.46317        1.34196        0.35717
C          2.88148       -0.65642       -0.12638
C          3.97703        0.29217        0.47212
N          4.37187        0.37340        1.88034
C          3.51639        1.25883        2.70135
C          3.82829        0.31167        3.88136
C          4.01381       -0.74747        2.77090
N          3.25194       -2.07724        0.01286
H         -2.44410        0.52015        0.13753
H         -1.46034        0.43429       -1.32198
H         -1.13143       -1.25176        1.20565
H         -1.69194       -1.80959       -0.36848
H          0.50128       -1.37417       -1.37637
H          0.66542       -2.40915        0.04119
H          1.35468       -0.47614        1.41758
H          1.07421        1.18796       -1.14151
H          1.62293        1.80313        0.40898
H         -0.74472        2.34867        0.02811
H         -0.53771        1.33103        1.45155
H          2.90911       -0.47259       -1.20972
H          4.90625        0.02213       -0.05112
H          3.78347        1.31147        0.11274
H          3.88584        2.28196        2.81342
H          2.45377        1.28999        2.44521
H          3.01558        0.13586        4.58982
H          4.74564        0.55826        4.42885
H          3.07834       -1.27638        2.57731
H          4.81147       -1.47451        2.94455
H          4.26510       -2.17452       -0.05467
H          2.99495       -2.42584        0.93202

--Link1--
%chk=JID_3971.chk
%mem=8GB
%nprocshared=4
# B3LYP/6-311++G(d,p) empiricaldispersion=gd3bj scf=xqc pop=npa geom=check

CID_130648050_JID_3971_Energie_neutraal

0 1

--Link1--
%chk=JID_3971.chk
%mem=8GB
%nprocshared=4
# B3LYP/6-311++G(d,p) empiricaldispersion=gd3bj scf=xqc pop=npa geom=check

CID_130648050_JID_3971_Energie_kation

1 2

--Link1--
%chk=JID_3971.chk
%mem=8GB
%nprocshared=4
# B3LYP/6-311++G(d,p) empiricaldispersion=gd3bj scf=xqc pop=npa geom=check

CID_130648050_JID_3971_Energie_anion

-1 2
