%chk=JID_9157.chk
%mem=8GB
%nprocshared=4
# opt freq B3LYP/6-31G(d) empiricaldispersion=gd3bj scf=xqc

CID_80714654_JID_9157_neutraal

0 1
C          0.95864        0.04690       -0.07804
C         -0.04172        0.40196        1.02482
C         -0.71693        1.74172        0.73580
C         -1.05992       -0.67806        1.22561
C         -1.62322       -1.22179        2.35392
C         -2.47379       -2.27661        1.91235
N         -2.48035       -2.33135        0.56546
N         -1.64163       -1.35609        0.18889
C         -3.27663       -3.16877        2.76183
O         -3.72525       -2.80811        3.85296
N         -3.51826       -4.47076        2.37120
C         -2.89685       -5.20377        1.28017
C         -3.66000       -5.12872       -0.05095
C         -3.81213       -6.60400       -0.42242
C         -4.87625       -7.26691        0.44742
C         -4.15697       -7.38292        1.79084
C         -2.80639       -6.72942        1.49100
O         -2.60195       -7.17873        0.12621
N         -1.37144       -0.83080        3.61679
H          0.48347        0.00526       -1.06442
H          1.42677       -0.92549        0.11176
H          1.75540        0.79717       -0.12802
H          0.53136        0.50977        1.95511
H         -1.30272        1.70671       -0.18955
H         -1.39636        2.02183        1.54873
H          0.02869        2.53770        0.63440
H         -1.49443       -1.21546       -0.80474
H         -4.09502       -4.96072        3.04029
H         -1.87963       -4.82201        1.13043
H         -4.61833       -4.60325        0.00561
H         -3.03635       -4.63031       -0.80188
H         -3.91632       -6.79441       -1.49285
H         -5.80324       -6.68906        0.50391
H         -5.11457       -8.26834        0.07207
H         -4.70875       -6.92525        2.61465
H         -4.01583       -8.44329        2.03146
H         -1.99866       -7.04400        2.15641
H         -1.99334       -1.14638        4.36345
H         -0.94788        0.06968        3.81416

--Link1--
%chk=JID_9157.chk
%mem=8GB
%nprocshared=4
# B3LYP/6-311++G(d,p) empiricaldispersion=gd3bj scf=xqc pop=npa geom=check

CID_80714654_JID_9157_Energie_neutraal

0 1

--Link1--
%chk=JID_9157.chk
%mem=8GB
%nprocshared=4
# B3LYP/6-311++G(d,p) empiricaldispersion=gd3bj scf=xqc pop=npa geom=check

CID_80714654_JID_9157_Energie_kation

1 2

--Link1--
%chk=JID_9157.chk
%mem=8GB
%nprocshared=4
# B3LYP/6-311++G(d,p) empiricaldispersion=gd3bj scf=xqc pop=npa geom=check

CID_80714654_JID_9157_Energie_anion

-1 2
