%chk=JID_3416.chk
%mem=8GB
%nprocshared=4
# opt freq B3LYP/6-31G(d) empiricaldispersion=gd3bj scf=xqc

CID_131165919_JID_3416_neutraal

0 1
C          0.99865       -0.03191        0.09476
N          0.09240        0.45054       -0.93267
C          0.35558        1.55439       -1.52540
N          1.39911        2.39451       -1.30650
N         -0.42168        2.08286       -2.51107
C         -1.53368        1.32528       -3.06870
C         -2.43207        2.19731       -3.97488
C         -3.04815        3.38297       -3.20852
C         -2.33458        4.72706       -3.34583
C         -2.75541        5.50017       -4.59430
C         -2.19118        4.96624       -5.90558
C         -2.50435        3.50064       -6.19674
C         -1.72843        2.53931       -5.29833
H          0.67422       -1.02543        0.41973
H          0.98732        0.62114        0.97341
H          2.02279       -0.13075       -0.28023
H          1.11085        3.36521       -1.34020
H          1.90079        2.20565       -0.44890
H          0.14166        2.54131       -3.21604
H         -1.14639        0.47188       -3.63845
H         -2.15072        0.92034       -2.25663
H         -3.27880        1.54658       -4.24083
H         -4.09131        3.50232       -3.53053
H         -3.11012        3.12773       -2.14255
H         -1.24621        4.61622       -3.30401
H         -2.61452        5.33827       -2.47804
H         -2.42165        6.53972       -4.48391
H         -3.85006        5.53850       -4.65610
H         -1.10523        5.12183       -5.92435
H         -2.59913        5.57540       -6.72199
H         -2.20503        3.30436       -7.23429
H         -3.58261        3.31161       -6.14362
H         -0.72039        2.93228       -5.12562
H         -1.58825        1.59924       -5.84891

--Link1--
%chk=JID_3416.chk
%mem=8GB
%nprocshared=4
# B3LYP/6-311++G(d,p) empiricaldispersion=gd3bj scf=xqc pop=npa geom=check

CID_131165919_JID_3416_Energie_neutraal

0 1

--Link1--
%chk=JID_3416.chk
%mem=8GB
%nprocshared=4
# B3LYP/6-311++G(d,p) empiricaldispersion=gd3bj scf=xqc pop=npa geom=check

CID_131165919_JID_3416_Energie_kation

1 2

--Link1--
%chk=JID_3416.chk
%mem=8GB
%nprocshared=4
# B3LYP/6-311++G(d,p) empiricaldispersion=gd3bj scf=xqc pop=npa geom=check

CID_131165919_JID_3416_Energie_anion

-1 2
