%chk=JID_8641.chk
%mem=8GB
%nprocshared=4
# opt freq B3LYP/6-31G(d) empiricaldispersion=gd3bj scf=xqc

CID_113466227_JID_8641_neutraal

0 1
C          1.04231       -0.08038        0.04182
C          0.86249       -1.48232       -0.54266
C          1.54905       -2.56710        0.31827
C          1.02098       -2.68805        1.72530
C          0.38793       -3.76876        2.19926
N         -0.55445       -1.79021       -0.73069
C         -1.40643       -1.37340       -1.70921
O         -2.60174       -1.65116       -1.60275
C         -0.84686       -0.68486       -2.93512
C         -1.83859        0.31516       -3.52793
O         -1.48128        1.66157       -3.18573
C         -1.78722        2.12167       -1.93735
C         -2.77459        1.62069       -1.09499
C         -2.96576        2.17915        0.17535
C         -2.21955        3.28105        0.59662
C         -1.20932        3.75743       -0.23853
C         -1.01432        3.20120       -1.50639
N         -2.32767        3.74611        1.91241
H          2.09901        0.12938        0.23687
H          0.48559        0.04431        0.97667
H          0.67635        0.68341       -0.64987
H          1.34013       -1.50517       -1.52879
H          1.45499       -3.53253       -0.19628
H          2.62351       -2.35303        0.37696
H          1.18597       -1.84400        2.39245
H          0.03764       -3.80099        3.22692
H          0.20392       -4.64262        1.58143
H         -1.04481       -2.19426        0.06061
H          0.10238       -0.18841       -2.72699
H         -0.65862       -1.48483       -3.66127
H         -1.73661        0.27165       -4.61906
H         -2.89360        0.10447       -3.32824
H         -3.41443        0.79342       -1.38282
H         -3.71423        1.74123        0.83085
H         -0.56317        4.56744        0.08748
H         -0.23481        3.59753       -2.15184
H         -2.01614        4.70504        2.03043
H         -3.24305        3.58841        2.32273

--Link1--
%chk=JID_8641.chk
%mem=8GB
%nprocshared=4
# B3LYP/6-311++G(d,p) empiricaldispersion=gd3bj scf=xqc pop=npa geom=check

CID_113466227_JID_8641_Energie_neutraal

0 1

--Link1--
%chk=JID_8641.chk
%mem=8GB
%nprocshared=4
# B3LYP/6-311++G(d,p) empiricaldispersion=gd3bj scf=xqc pop=npa geom=check

CID_113466227_JID_8641_Energie_kation

1 2

--Link1--
%chk=JID_8641.chk
%mem=8GB
%nprocshared=4
# B3LYP/6-311++G(d,p) empiricaldispersion=gd3bj scf=xqc pop=npa geom=check

CID_113466227_JID_8641_Energie_anion

-1 2
