%chk=JID_4342.chk
%mem=8GB
%nprocshared=4
# opt freq B3LYP/6-31G(d) empiricaldispersion=gd3bj scf=xqc

CID_130715640_JID_4342_neutraal

0 1
C          0.92683        0.06504       -0.02040
N          0.31700       -1.21962       -0.39129
C         -1.17148       -1.17314       -0.22592
C         -1.76462       -2.59645       -0.17986
C         -3.25820       -2.55854        0.10655
O         -3.93008       -1.80793       -0.90227
C         -3.52106       -0.44208       -0.90478
C         -2.01643       -0.28506       -1.19789
O         -1.60496        1.08917       -1.24362
C         -1.97297        1.89843       -0.13566
C          0.74411       -1.56753       -1.76896
C          2.29136       -1.73349       -1.85451
N          2.07516       -2.94070       -2.69345
C          0.76407       -3.10025       -2.00835
H          0.53737        0.42810        0.93700
H          0.78624        0.84185       -0.77802
H          2.00521       -0.04982        0.13391
H         -1.33383       -0.77712        0.78647
H         -1.63780       -3.08717       -1.14854
H         -1.25764       -3.20251        0.57954
H         -3.66537       -3.57457        0.08948
H         -3.47215       -2.13222        1.09355
H         -3.80013        0.00534        0.05616
H         -4.10103        0.08576       -1.66996
H         -1.85807       -0.67509       -2.21065
H         -3.03463        2.15498       -0.18851
H         -1.74826        1.41612        0.81854
H         -1.40196        2.82948       -0.19226
H          0.32748       -0.96824       -2.58673
H          2.82505       -0.92155       -2.35797
H          2.81545       -1.96733       -0.91889
H          1.98190       -2.72429       -3.68619
H          0.83030       -3.73181       -1.11323
H         -0.02357       -3.49286       -2.65796

--Link1--
%chk=JID_4342.chk
%mem=8GB
%nprocshared=4
# B3LYP/6-311++G(d,p) empiricaldispersion=gd3bj scf=xqc pop=npa geom=check

CID_130715640_JID_4342_Energie_neutraal

0 1

--Link1--
%chk=JID_4342.chk
%mem=8GB
%nprocshared=4
# B3LYP/6-311++G(d,p) empiricaldispersion=gd3bj scf=xqc pop=npa geom=check

CID_130715640_JID_4342_Energie_kation

1 2

--Link1--
%chk=JID_4342.chk
%mem=8GB
%nprocshared=4
# B3LYP/6-311++G(d,p) empiricaldispersion=gd3bj scf=xqc pop=npa geom=check

CID_130715640_JID_4342_Energie_anion

-1 2
