%chk=JID_1723.chk
%mem=8GB
%nprocshared=4
# opt freq B3LYP/6-31G(d) empiricaldispersion=gd3bj scf=xqc

CID_89347236_JID_1723_neutraal

0 1
C          0.93959        0.01525        0.07822
C          0.23399        0.98756       -0.50133
N         -1.05307        1.33416       -0.19711
C         -1.90399        2.20502       -0.99486
C         -2.60694        1.43769       -2.12082
C         -3.61924        0.44079       -1.61996
C         -4.89702        0.83964       -1.23924
N         -5.84466        0.00043       -0.76522
C         -5.50483       -1.30217       -0.66427
C         -4.26120       -1.80259       -1.01136
C         -3.30498       -0.91460       -1.49420
H          0.52145       -0.59602        0.86986
H          1.96185       -0.18210       -0.22598
H          0.68722        1.59092       -1.28647
H         -1.54543        0.69708        0.42689
H         -2.64081        2.67445       -0.33296
H         -1.30404        3.01562       -1.42560
H         -3.11863        2.15315       -2.77723
H         -1.86817        0.92771       -2.75217
H         -5.20824        1.87887       -1.30536
H         -6.28418       -1.95543       -0.28268
H         -4.04107       -2.85883       -0.90676
H         -2.31697       -1.27960       -1.76528

--Link1--
%chk=JID_1723.chk
%mem=8GB
%nprocshared=4
# B3LYP/6-311++G(d,p) empiricaldispersion=gd3bj scf=xqc pop=npa geom=check

CID_89347236_JID_1723_Energie_neutraal

0 1

--Link1--
%chk=JID_1723.chk
%mem=8GB
%nprocshared=4
# B3LYP/6-311++G(d,p) empiricaldispersion=gd3bj scf=xqc pop=npa geom=check

CID_89347236_JID_1723_Energie_kation

1 2

--Link1--
%chk=JID_1723.chk
%mem=8GB
%nprocshared=4
# B3LYP/6-311++G(d,p) empiricaldispersion=gd3bj scf=xqc pop=npa geom=check

CID_89347236_JID_1723_Energie_anion

-1 2
