%chk=JID_3992.chk
%mem=8GB
%nprocshared=4
# opt freq B3LYP/6-31G(d) empiricaldispersion=gd3bj scf=xqc

CID_141115403_JID_3992_neutraal

0 1
C          1.03890        0.04562       -0.08003
N          1.06748        0.22000       -1.51933
C          1.18160       -1.01641       -2.28530
C          1.20539        1.45846       -2.13213
N          1.79852        2.53211       -1.68858
O          2.41851        2.37290       -0.44145
C          3.10317        3.50820       -0.11765
O          3.25042        4.52504       -0.78724
C          3.71339        3.40376        1.23141
C          3.57055        2.38659        2.09119
N          0.62815        1.49700       -3.39930
C         -0.79660        1.19897       -3.53945
C          1.08996        2.52725       -4.33212
H          0.44567       -0.83583        0.18917
H          0.57039        0.89999        0.41942
H          2.05037       -0.10001        0.31060
H          0.18729       -1.42563       -2.49075
H          1.70352       -0.86508       -3.23628
H          1.74978       -1.77024       -1.72881
H          4.31341        4.26719        1.50132
H          4.05850        2.41807        3.06055
H          2.97354        1.51101        1.86615
H         -1.37753        2.11960       -3.66452
H         -0.95379        0.56818       -4.42045
H         -1.20729        0.67190       -2.67222
H          0.72485        3.51722       -4.03739
H          2.18434        2.54923       -4.37539
H          0.73031        2.31400       -5.34467

--Link1--
%chk=JID_3992.chk
%mem=8GB
%nprocshared=4
# B3LYP/6-311++G(d,p) empiricaldispersion=gd3bj scf=xqc pop=npa geom=check

CID_141115403_JID_3992_Energie_neutraal

0 1

--Link1--
%chk=JID_3992.chk
%mem=8GB
%nprocshared=4
# B3LYP/6-311++G(d,p) empiricaldispersion=gd3bj scf=xqc pop=npa geom=check

CID_141115403_JID_3992_Energie_kation

1 2

--Link1--
%chk=JID_3992.chk
%mem=8GB
%nprocshared=4
# B3LYP/6-311++G(d,p) empiricaldispersion=gd3bj scf=xqc pop=npa geom=check

CID_141115403_JID_3992_Energie_anion

-1 2
