%chk=JID_8596.chk
%mem=8GB
%nprocshared=4
# opt freq B3LYP/6-31G(d) empiricaldispersion=gd3bj scf=xqc

CID_3232823_JID_8596_neutraal

0 1
C          1.08837       -0.04095       -0.02267
N          1.30423        0.32302        1.38227
C          0.24225        1.17692        1.92206
C          1.46252       -0.86458        2.15326
N          0.37537       -1.40361        2.73422
C          0.55571       -2.54029        3.42177
N          1.72018       -3.18784        3.57705
C          2.79580       -2.63819        3.00876
C          4.02435       -3.27110        3.15967
C          5.19819       -2.75109        2.60687
C          5.15346       -1.56565        1.88697
C          3.93321       -0.91548        1.72097
C          2.73986       -1.44947        2.27055
C         -0.62109       -3.11441        4.04165
C         -0.62008       -4.27557        4.78668
O         -1.86976       -4.56151        5.23812
C         -2.68670       -3.57734        4.78247
C         -1.97201       -2.66441        4.04329
H          1.00365        0.86740       -0.62975
H          0.16809       -0.62293       -0.15533
H          1.92827       -0.61610       -0.42799
H         -0.75309        0.73077        1.80814
H          0.41774        1.40219        2.98057
H          0.23959        2.13431        1.38895
H          4.07185       -4.19666        3.72973
H          6.14179       -3.27179        2.74823
H          6.06048       -1.14520        1.46087
H          3.90208        0.02176        1.16863
H          0.15165       -4.97762        5.07221
H         -3.72686       -3.66605        5.06326
H         -2.36509       -1.78037        3.56107

--Link1--
%chk=JID_8596.chk
%mem=8GB
%nprocshared=4
# B3LYP/6-311++G(d,p) empiricaldispersion=gd3bj scf=xqc pop=npa geom=check

CID_3232823_JID_8596_Energie_neutraal

0 1

--Link1--
%chk=JID_8596.chk
%mem=8GB
%nprocshared=4
# B3LYP/6-311++G(d,p) empiricaldispersion=gd3bj scf=xqc pop=npa geom=check

CID_3232823_JID_8596_Energie_kation

1 2

--Link1--
%chk=JID_8596.chk
%mem=8GB
%nprocshared=4
# B3LYP/6-311++G(d,p) empiricaldispersion=gd3bj scf=xqc pop=npa geom=check

CID_3232823_JID_8596_Energie_anion

-1 2
