%chk=JID_9220.chk
%mem=8GB
%nprocshared=4
# opt freq B3LYP/6-31G(d) empiricaldispersion=gd3bj scf=xqc

CID_66249184_JID_9220_neutraal

0 1
C          0.94651        0.06853       -0.04943
C          0.74983       -1.13597        0.87560
C          1.39683       -2.39456        0.29369
O          1.81897       -3.22632        1.38838
C          1.56252       -2.53005        2.61393
C          1.41271       -1.05027        2.25584
N          2.72721       -0.40455        2.22661
C          3.16809        0.83684        2.44884
O          4.36069        1.06665        2.23640
N          2.40925        1.84756        2.87528
C          1.04552        1.98988        3.33216
C          0.98190        1.74779        4.79585
C          1.62461        2.42897        5.81191
N          1.23995        1.83889        6.98033
N          0.36744        0.83438        6.80515
C          0.21327        0.77824        5.48110
C         -0.75008       -1.36993        0.97294
O         -1.46141       -1.85267        0.10726
O         -1.31699       -0.90368        2.10261
H          0.52208        0.97753        0.38946
H          0.44557       -0.08788       -1.01231
H          2.00385        0.25542       -0.26364
H          0.73778       -2.98517       -0.35026
H          2.29721       -2.15804       -0.28448
H          2.37402       -2.72817        3.32088
H          0.63308       -2.93191        3.03264
H          0.82215       -0.57647        3.03183
H          3.48846       -0.98447        1.88723
H          2.98783        2.66282        3.02694
H          0.75217        3.02597        3.12686
H          0.36786        1.35464        2.76476
H          2.31515        3.26022        5.80545
H          1.52340        2.07239        7.92667
H         -0.45522        0.03322        5.06843
H         -2.27277       -1.10003        1.98125

--Link1--
%chk=JID_9220.chk
%mem=8GB
%nprocshared=4
# B3LYP/6-311++G(d,p) empiricaldispersion=gd3bj scf=xqc pop=npa geom=check

CID_66249184_JID_9220_Energie_neutraal

0 1

--Link1--
%chk=JID_9220.chk
%mem=8GB
%nprocshared=4
# B3LYP/6-311++G(d,p) empiricaldispersion=gd3bj scf=xqc pop=npa geom=check

CID_66249184_JID_9220_Energie_kation

1 2

--Link1--
%chk=JID_9220.chk
%mem=8GB
%nprocshared=4
# B3LYP/6-311++G(d,p) empiricaldispersion=gd3bj scf=xqc pop=npa geom=check

CID_66249184_JID_9220_Energie_anion

-1 2
