%chk=JID_3633.chk
%mem=8GB
%nprocshared=4
# opt freq B3LYP/6-31G(d) empiricaldispersion=gd3bj scf=xqc

CID_43208691_JID_3633_neutraal

0 1
C          1.09046       -0.04220        0.00600
C          1.21114        1.47111        0.17556
C          1.75487        2.11594       -1.09638
N         -0.08193        2.06220        0.51342
C         -0.76711        1.87453        1.66780
O         -1.99433        1.86565        1.65821
N         -0.07936        1.64865        2.81067
C          0.96833        2.55009        3.30312
C          2.07940        1.74101        3.98188
C          1.60425        1.12411        5.29859
C          0.93982        2.16154        6.20244
N         -0.14193        2.86606        5.51162
C          0.36078        3.55357        4.31090
H          0.37264       -0.29641       -0.78186
H          0.74677       -0.51762        0.93076
H          2.05737       -0.48343       -0.25752
H          1.91966        1.66280        0.98355
H          1.08499        1.94651       -1.94693
H          1.85750        3.19905       -0.96796
H          2.73919        1.70990       -1.35152
H         -0.73782        2.14522       -0.25382
H         -0.73385        1.42478        3.55501
H          1.37899        3.12653        2.46812
H          2.44356        0.94890        3.31731
H          2.92939        2.40376        4.18732
H          0.89654        0.31183        5.09009
H          2.45593        0.67204        5.81959
H          0.52826        1.65726        7.08354
H          1.68556        2.87992        6.56417
H         -0.55431        3.55428        6.14205
H          1.10720        4.30592        4.59389
H         -0.47474        4.08643        3.84244

--Link1--
%chk=JID_3633.chk
%mem=8GB
%nprocshared=4
# B3LYP/6-311++G(d,p) empiricaldispersion=gd3bj scf=xqc pop=npa geom=check

CID_43208691_JID_3633_Energie_neutraal

0 1

--Link1--
%chk=JID_3633.chk
%mem=8GB
%nprocshared=4
# B3LYP/6-311++G(d,p) empiricaldispersion=gd3bj scf=xqc pop=npa geom=check

CID_43208691_JID_3633_Energie_kation

1 2

--Link1--
%chk=JID_3633.chk
%mem=8GB
%nprocshared=4
# B3LYP/6-311++G(d,p) empiricaldispersion=gd3bj scf=xqc pop=npa geom=check

CID_43208691_JID_3633_Energie_anion

-1 2
