%chk=JID_4675.chk
%mem=8GB
%nprocshared=4
# opt freq B3LYP/6-31G(d) empiricaldispersion=gd3bj scf=xqc

CID_130646398_JID_4675_neutraal

0 1
C          2.49600       -0.00700       -0.12600
C          1.02585       -0.01816        0.28840
C          0.29814        1.20938       -0.26443
C         -1.17798        1.21569        0.13811
C         -1.93973       -0.07620       -0.25233
C         -1.14641       -1.33001        0.18299
C          0.34174       -1.30419       -0.18103
C         -2.06228       -0.06201       -1.78440
O         -2.99888        0.44740       -2.39544
C         -3.39788       -0.03535        0.33415
C         -3.50969       -0.08690        1.85385
C         -3.81628       -1.53583        2.18698
O         -4.09159       -2.21359        0.95926
C         -4.26732       -1.22714       -0.06149
H          2.60372       -0.03775       -1.21558
H          2.99493        0.89732        0.23801
H          3.02352       -0.87132        0.29101
H          0.98524        0.01705        1.38526
H          0.77269        2.12342        0.11326
H          0.38659        1.24268       -1.35735
H         -1.65941        2.09066       -0.31783
H         -1.22251        1.37114        1.22156
H         -1.58904       -2.23396       -0.25262
H         -1.20083       -1.44042        1.27127
H          0.46601       -1.42420       -1.26357
H          0.83202       -2.17161        0.27845
H         -1.21110       -0.47555       -2.34914
H         -3.87172        0.88569       -0.03178
H         -4.35518        0.53421        2.17640
H         -2.63724        0.27702        2.40097
H         -2.97320       -2.03304        2.67555
H         -4.68645       -1.62114        2.84575
H         -5.32678       -0.94447       -0.06987
H         -4.02990       -1.66879       -1.03220

--Link1--
%chk=JID_4675.chk
%mem=8GB
%nprocshared=4
# B3LYP/6-311++G(d,p) empiricaldispersion=gd3bj scf=xqc pop=npa geom=check

CID_130646398_JID_4675_Energie_neutraal

0 1

--Link1--
%chk=JID_4675.chk
%mem=8GB
%nprocshared=4
# B3LYP/6-311++G(d,p) empiricaldispersion=gd3bj scf=xqc pop=npa geom=check

CID_130646398_JID_4675_Energie_kation

1 2

--Link1--
%chk=JID_4675.chk
%mem=8GB
%nprocshared=4
# B3LYP/6-311++G(d,p) empiricaldispersion=gd3bj scf=xqc pop=npa geom=check

CID_130646398_JID_4675_Energie_anion

-1 2
