%chk=JID_7611.chk
%mem=8GB
%nprocshared=4
# opt freq B3LYP/6-31G(d) empiricaldispersion=gd3bj scf=xqc

CID_65774467_JID_7611_neutraal

0 1
C          0.98009        0.09768        0.00787
C          0.46293       -1.32966        0.09344
N          1.03366       -1.99715        1.26282
C          0.48066       -3.34414        1.46803
C          0.98875       -4.42824        0.50798
C          2.47228       -4.73755        0.70032
S         -0.01664       -5.92784        0.65083
O         -1.41573       -5.56107        0.62143
O          0.50015       -6.90430       -0.28453
N          0.32268       -6.48937        2.20686
C          1.06839       -7.76120        2.36826
C          0.12450       -8.94246        2.30493
S         -1.06582       -8.81388        3.61790
O         -2.12355       -9.77209        3.36064
O         -0.35045       -8.83535        4.88064
C         -1.73369       -7.18509        3.38967
C         -0.60847       -6.17483        3.31788
H          0.71512        0.66974        0.90353
H          0.54317        0.60576       -0.85786
H          2.06951        0.11895       -0.10340
H         -0.63012       -1.30148        0.16713
H          0.72915       -1.85831       -0.82761
H          2.05048       -2.01557        1.19886
H          0.73620       -3.63340        2.49438
H         -0.61347       -3.28033        1.44923
H          0.83101       -4.11026       -0.52950
H          2.68637       -5.05338        1.72668
H          2.79820       -5.54197        0.03295
H          3.09107       -3.86179        0.48188
H          1.60132       -7.73242        3.32641
H          1.84681       -7.84737        1.60303
H          0.66024       -9.88646        2.43863
H         -0.43011       -8.98067        1.36256
H         -2.33341       -7.20499        2.47550
H         -2.39395       -6.97844        4.23693
H         -0.03601       -6.15636        4.25325
H         -1.01673       -5.16652        3.19844

--Link1--
%chk=JID_7611.chk
%mem=8GB
%nprocshared=4
# B3LYP/6-311++G(d,p) empiricaldispersion=gd3bj scf=xqc pop=npa geom=check

CID_65774467_JID_7611_Energie_neutraal

0 1

--Link1--
%chk=JID_7611.chk
%mem=8GB
%nprocshared=4
# B3LYP/6-311++G(d,p) empiricaldispersion=gd3bj scf=xqc pop=npa geom=check

CID_65774467_JID_7611_Energie_kation

1 2

--Link1--
%chk=JID_7611.chk
%mem=8GB
%nprocshared=4
# B3LYP/6-311++G(d,p) empiricaldispersion=gd3bj scf=xqc pop=npa geom=check

CID_65774467_JID_7611_Energie_anion

-1 2
