%chk=JID_5667.chk
%mem=8GB
%nprocshared=4
# opt freq B3LYP/6-31G(d) empiricaldispersion=gd3bj scf=xqc

CID_116569630_JID_5667_neutraal

0 1
C          0.93319       -0.07160       -0.02022
C          0.78838       -1.37298       -0.79840
C          1.27760       -2.60155       -0.01540
C          0.21750       -3.49877        0.71002
C          0.97963       -4.63882        1.43135
C          1.55595       -5.69618        0.48360
C          0.50615       -6.21506       -0.48909
N         -0.10652       -5.11260       -1.22130
C         -0.75705       -4.16488       -0.30842
C         -0.69230       -2.62838        1.62063
O         -1.48587       -1.83374        1.08918
C         -0.78161       -2.75358        3.14853
C         -1.66065       -3.93734        3.55356
C          0.49937       -2.67084        3.98080
C          1.30259       -1.40415        3.73055
H          0.35006       -0.07490        0.90320
H          0.59081        0.77012       -0.63077
H          1.98081        0.11032        0.24129
H         -0.23987       -1.48822       -1.15009
H          1.40560       -1.27712       -1.70110
H          1.81701       -3.22404       -0.74040
H          2.04020       -2.28408        0.70561
H          1.81047       -4.23537        2.01830
H          0.31833       -5.16178        2.12408
H          2.40609       -5.28108       -0.07061
H          1.95299       -6.53156        1.07253
H          0.98056       -6.89872       -1.20139
H         -0.25972       -6.78985        0.04570
H         -0.80293       -5.48150       -1.86958
H         -1.56342       -4.68186        0.23075
H         -1.25679       -3.40757       -0.92189
H         -1.35982       -1.86201        3.44154
H         -1.10763       -4.87846        3.58712
H         -2.07278       -3.77589        4.55606
H         -2.50190       -4.06424        2.86383
H          0.22026       -2.67936        5.04304
H          1.13596       -3.54640        3.84566
H          0.68966       -0.51103        3.88808
H          2.15135       -1.35572        4.42039
H          1.70034       -1.37350        2.71531

--Link1--
%chk=JID_5667.chk
%mem=8GB
%nprocshared=4
# B3LYP/6-311++G(d,p) empiricaldispersion=gd3bj scf=xqc pop=npa geom=check

CID_116569630_JID_5667_Energie_neutraal

0 1

--Link1--
%chk=JID_5667.chk
%mem=8GB
%nprocshared=4
# B3LYP/6-311++G(d,p) empiricaldispersion=gd3bj scf=xqc pop=npa geom=check

CID_116569630_JID_5667_Energie_kation

1 2

--Link1--
%chk=JID_5667.chk
%mem=8GB
%nprocshared=4
# B3LYP/6-311++G(d,p) empiricaldispersion=gd3bj scf=xqc pop=npa geom=check

CID_116569630_JID_5667_Energie_anion

-1 2
