%chk=JID_7117.chk
%mem=8GB
%nprocshared=4
# opt freq B3LYP/6-31G(d) empiricaldispersion=gd3bj scf=xqc

CID_153667452_JID_7117_neutraal

0 1
C         -0.85900       -1.17600        0.30500
C          0.54477       -1.00942       -0.26511
O          1.22958        0.11449        0.30408
C          0.47291        1.25395        0.36514
C         -0.85589        1.31127        0.21709
C         -1.69933        0.07796        0.01615
C         -2.36084        0.00458       -1.35767
N         -1.83115        0.72246       -2.37654
C         -2.43631        0.64366       -3.58037
C         -3.53411       -0.16017       -3.86131
C         -4.10872       -0.23906       -5.24461
N         -4.73498        1.01223       -5.68177
C         -3.73155        2.02616       -6.05167
C         -2.81162        2.46824       -4.90445
O         -1.88367        1.43422       -4.55603
C         -4.06091       -0.90006       -2.80185
C         -3.47600       -0.81469       -1.53956
H         -1.32527       -2.08615       -0.08810
H         -0.77789       -1.29684        1.39380
H          1.14124       -1.89931       -0.03713
H          0.52910       -0.90211       -1.35661
H          1.09304        2.11945        0.56043
H         -1.36113        2.27142        0.25228
H         -2.50897        0.12167        0.75771
H         -4.88337       -1.01585       -5.26167
H         -3.34298       -0.57570       -5.95548
H         -5.29967        0.81380       -6.50750
H         -3.12963        1.65113       -6.88843
H         -4.27537        2.90656       -6.41230
H         -2.21137        3.31760       -5.25068
H         -3.38348        2.82798       -4.03701
H         -4.92571       -1.54131       -2.95021
H         -3.88561       -1.38746       -0.71322

--Link1--
%chk=JID_7117.chk
%mem=8GB
%nprocshared=4
# B3LYP/6-311++G(d,p) empiricaldispersion=gd3bj scf=xqc pop=npa geom=check

CID_153667452_JID_7117_Energie_neutraal

0 1

--Link1--
%chk=JID_7117.chk
%mem=8GB
%nprocshared=4
# B3LYP/6-311++G(d,p) empiricaldispersion=gd3bj scf=xqc pop=npa geom=check

CID_153667452_JID_7117_Energie_kation

1 2

--Link1--
%chk=JID_7117.chk
%mem=8GB
%nprocshared=4
# B3LYP/6-311++G(d,p) empiricaldispersion=gd3bj scf=xqc pop=npa geom=check

CID_153667452_JID_7117_Energie_anion

-1 2
