%chk=JID_329.chk
%mem=8GB
%nprocshared=4
# opt freq B3LYP/6-31G(d) empiricaldispersion=gd3bj scf=xqc

CID_148872583_JID_329_neutraal

0 1
C          0.96658        0.09389       -0.00825
C          0.26655       -0.27786        1.07028
C         -1.21518       -0.28015        1.03016
C         -2.04636       -0.54451        2.33842
C         -1.97800        0.93829        2.70489
C         -1.98070        1.00995        1.00910
C         -1.62043        2.46370        1.14905
C         -2.59382        2.27371        2.35296
C         -3.56590        3.02383        2.87730
N         -0.69759        1.17833        3.37933
H          0.48218        0.40728       -0.92757
H          2.05178        0.09502        0.01306
H          0.77673       -0.59209        1.97568
H         -1.53901       -0.96977        0.23670
H         -3.06863       -0.90910        2.16007
H         -1.58852       -1.24868        3.04383
H         -2.96059        0.86684        0.51117
H         -0.57801        2.71836        1.35990
H         -1.97507        3.09441        0.32819
H         -4.11345        2.68427        3.74914
H         -3.81910        3.98109        2.43575
H         -0.58812        0.62236        4.22566
H         -0.57658        2.14339        3.68634

--Link1--
%chk=JID_329.chk
%mem=8GB
%nprocshared=4
# B3LYP/6-311++G(d,p) empiricaldispersion=gd3bj scf=xqc pop=npa geom=check

CID_148872583_JID_329_Energie_neutraal

0 1

--Link1--
%chk=JID_329.chk
%mem=8GB
%nprocshared=4
# B3LYP/6-311++G(d,p) empiricaldispersion=gd3bj scf=xqc pop=npa geom=check

CID_148872583_JID_329_Energie_kation

1 2

--Link1--
%chk=JID_329.chk
%mem=8GB
%nprocshared=4
# B3LYP/6-311++G(d,p) empiricaldispersion=gd3bj scf=xqc pop=npa geom=check

CID_148872583_JID_329_Energie_anion

-1 2
