%chk=JID_10600.chk
%mem=8GB
%nprocshared=4
# opt freq B3LYP/6-31G(d) empiricaldispersion=gd3bj scf=xqc

CID_102649362_JID_10600_neutraal

0 1
C          1.09322       -0.03087       -0.01888
C          0.31145       -1.33081        0.11667
C          0.88161       -2.25139        1.19684
N          0.73324       -1.67564        2.53384
C          1.70043       -2.25215        3.49767
C          3.12629       -1.63902        3.30813
C          3.68862       -0.72450        4.38027
C          3.40087        0.65238        4.46384
C          3.98078        1.40945        5.49640
C          4.85482        0.82911        6.41633
C          5.16753       -0.52590        6.32776
C          4.56723       -1.29338        5.32372
C          6.09439       -1.17219        7.31228
C          2.47747        1.34955        3.50640
C          1.18585       -2.22383        4.93335
C          0.22720       -1.39648        5.38951
C         -0.22412       -1.37089        6.81403
C          0.68549       -2.21575        7.69421
C          1.07039       -3.48097        6.94708
O          1.77972       -3.18723        5.73928
H          0.94091        0.62562        0.84184
H          0.75445        0.51533       -0.90545
H          2.16541       -0.22073       -0.12997
H         -0.74316       -1.10870        0.31827
H          0.34540       -1.86031       -0.84319
H          0.35016       -3.20951        1.16564
H          1.93081       -2.45605        0.95276
H          0.87326       -0.67104        2.51203
H          1.77468       -3.32086        3.24569
H          3.82275       -2.48095        3.17928
H          3.20495       -1.11655        2.34567
H          3.75823        2.47061        5.58889
H          5.28988        1.44618        7.19836
H          4.78717       -2.35914        5.27313
H          5.52082       -1.73754        8.05290
H          6.78420       -1.85049        6.79867
H          6.70141       -0.42606        7.83542
H          1.44249        1.05265        3.69241
H          2.53018        2.43819        3.62012
H          2.75193        1.12920        2.47128
H         -0.24627       -0.68404        4.72066
H         -1.25190       -1.74919        6.86181
H         -0.23915       -0.33972        7.18350
H          0.18720       -2.45450        8.63945
H          1.59156       -1.64274        7.92873
H          1.72795       -4.09580        7.57012
H          0.18879       -4.08768        6.70447

--Link1--
%chk=JID_10600.chk
%mem=8GB
%nprocshared=4
# B3LYP/6-311++G(d,p) empiricaldispersion=gd3bj scf=xqc pop=npa geom=check

CID_102649362_JID_10600_Energie_neutraal

0 1

--Link1--
%chk=JID_10600.chk
%mem=8GB
%nprocshared=4
# B3LYP/6-311++G(d,p) empiricaldispersion=gd3bj scf=xqc pop=npa geom=check

CID_102649362_JID_10600_Energie_kation

1 2

--Link1--
%chk=JID_10600.chk
%mem=8GB
%nprocshared=4
# B3LYP/6-311++G(d,p) empiricaldispersion=gd3bj scf=xqc pop=npa geom=check

CID_102649362_JID_10600_Energie_anion

-1 2
