%chk=JID_7465.chk
%mem=8GB
%nprocshared=4
# opt freq B3LYP/6-31G(d) empiricaldispersion=gd3bj scf=xqc

CID_84625929_JID_7465_neutraal

0 1
C          0.91467        0.04042        0.03295
C          0.35518       -0.03207       -1.35958
C          0.16221       -1.27885       -1.97087
C         -0.32904       -1.39705       -3.28729
C         -0.63625       -0.20637       -3.97436
C         -0.42231        1.02677       -3.36640
C          0.08147        1.14948       -2.06483
N         -0.80090        1.94401       -4.31996
C         -1.27765        1.25851       -5.41727
N         -1.14947       -0.04338       -5.23819
C         -1.81129        1.91734       -6.65345
C         -3.08091        1.25817       -7.17457
C         -3.08480        1.68082       -8.62668
C         -1.61521        1.63347       -9.00327
N         -0.84296        1.82802       -7.76615
C         -0.70471        3.37920       -4.20408
C         -0.54142       -2.75733       -3.88242
H          0.59034       -0.81900        0.62914
H          0.56620        0.94186        0.54796
H          2.00826        0.05448       -0.00418
H          0.39760       -2.18646       -1.41624
H          0.24642        2.12011       -1.60944
H         -2.01959        2.97859       -6.47463
H         -3.03982        0.16378       -7.10575
H         -3.97629        1.59673       -6.64342
H         -3.70099        1.02667       -9.25012
H         -3.46651        2.70494       -8.71783
H         -1.36792        0.65683       -9.43550
H         -1.36590        2.39936       -9.74387
H         -0.29319        0.97723       -7.60815
H         -1.71633        3.78618       -4.13052
H         -0.13207        3.65076       -3.31527
H         -0.19307        3.76996       -5.08753
H         -1.44299       -3.21232       -3.46084
H         -0.65714       -2.70148       -4.96944
H          0.31608       -3.40557       -3.67423

--Link1--
%chk=JID_7465.chk
%mem=8GB
%nprocshared=4
# B3LYP/6-311++G(d,p) empiricaldispersion=gd3bj scf=xqc pop=npa geom=check

CID_84625929_JID_7465_Energie_neutraal

0 1

--Link1--
%chk=JID_7465.chk
%mem=8GB
%nprocshared=4
# B3LYP/6-311++G(d,p) empiricaldispersion=gd3bj scf=xqc pop=npa geom=check

CID_84625929_JID_7465_Energie_kation

1 2

--Link1--
%chk=JID_7465.chk
%mem=8GB
%nprocshared=4
# B3LYP/6-311++G(d,p) empiricaldispersion=gd3bj scf=xqc pop=npa geom=check

CID_84625929_JID_7465_Energie_anion

-1 2
