%chk=JID_8891.chk
%mem=8GB
%nprocshared=4
# opt freq B3LYP/6-31G(d) empiricaldispersion=gd3bj scf=xqc

CID_116982541_JID_8891_neutraal

0 1
C          2.49200        0.00400       -0.01400
C          1.01754       -0.08208       -0.28446
C          0.43735       -1.30522       -0.64991
C         -0.94908       -1.42269       -0.85519
C         -1.75189       -0.28853       -0.66798
C         -1.18257        0.93251       -0.30532
C          0.19433        1.03427       -0.10903
C         -1.53549       -2.77858       -1.17305
C         -1.93741       -3.53214        0.09857
N         -3.05922       -4.35339       -0.32301
C         -3.61246       -3.81015       -1.49577
O         -4.64960       -4.17414       -2.02552
N         -2.76641       -2.78819       -1.94356
C         -2.82923       -2.30536       -3.30387
C         -3.88760       -5.11962        0.60473
C         -3.13916       -6.11145        1.49624
C         -2.33759       -5.36632        2.55108
N         -1.67263       -4.74818        3.42616
H          2.71061       -0.37140        0.99042
H          3.05240       -0.58602       -0.74676
H          2.84765        1.03709       -0.08703
H          1.07621       -2.18038       -0.76029
H         -2.83141       -0.35022       -0.79282
H         -1.81627        1.80421       -0.16136
H          0.61854        1.98994        0.19074
H         -0.81500       -3.37757       -1.74695
H         -1.11726       -4.15171        0.47045
H         -2.28933       -2.85800        0.88847
H         -2.22527       -2.96071       -3.93783
H         -3.86264       -2.32570       -3.66126
H         -2.44852       -1.28309       -3.35745
H         -4.45297       -4.39719        1.20636
H         -4.62139       -5.67628        0.00979
H         -3.85491       -6.76577        2.00557
H         -2.46426       -6.73663        0.90197

--Link1--
%chk=JID_8891.chk
%mem=8GB
%nprocshared=4
# B3LYP/6-311++G(d,p) empiricaldispersion=gd3bj scf=xqc pop=npa geom=check

CID_116982541_JID_8891_Energie_neutraal

0 1

--Link1--
%chk=JID_8891.chk
%mem=8GB
%nprocshared=4
# B3LYP/6-311++G(d,p) empiricaldispersion=gd3bj scf=xqc pop=npa geom=check

CID_116982541_JID_8891_Energie_kation

1 2

--Link1--
%chk=JID_8891.chk
%mem=8GB
%nprocshared=4
# B3LYP/6-311++G(d,p) empiricaldispersion=gd3bj scf=xqc pop=npa geom=check

CID_116982541_JID_8891_Energie_anion

-1 2
