%chk=JID_6261.chk
%mem=8GB
%nprocshared=4
# opt freq B3LYP/6-31G(d) empiricaldispersion=gd3bj scf=xqc

CID_105648772_JID_6261_neutraal

0 1
C          0.90463        0.00704       -0.02924
C          0.21333        1.34866       -0.28084
C          0.57132        1.85832       -1.67997
C         -1.31636        1.24965       -0.13805
C         -1.82352        0.78660        1.23525
C         -1.51032        1.74894        2.40199
N         -2.33599        2.94562        2.28307
C         -2.85843        3.57489        3.34801
C         -2.94428        3.29940        4.69273
C         -3.68377        4.36024        5.27070
C         -4.01352        5.22283        4.24103
O         -3.48590        4.74539        3.07111
C         -4.77595        6.43988        4.20127
O         -5.02008        7.15934        3.24371
O         -5.26347        6.75977        5.42371
O         -3.24769        0.62239        1.14343
H          0.49615       -0.77794       -0.67453
H          0.79122       -0.31037        1.01163
H          1.97955        0.08091       -0.22717
H          0.59989        2.07760        0.44055
H          0.22215        1.16917       -2.45649
H          0.11770        2.83768       -1.86537
H          1.65570        1.96854       -1.78832
H         -1.77093        2.21788       -0.38542
H         -1.70621        0.55861       -0.89853
H         -1.41431       -0.20171        1.46545
H         -1.74897        1.21782        3.33108
H         -0.45023        2.01600        2.44059
H         -2.21226        3.50167        1.43977
H         -2.53975        2.43666        5.20069
H         -3.96311        4.48088        6.30840
H         -5.76473        7.58209        5.24566
H         -3.62567        1.48261        1.42219

--Link1--
%chk=JID_6261.chk
%mem=8GB
%nprocshared=4
# B3LYP/6-311++G(d,p) empiricaldispersion=gd3bj scf=xqc pop=npa geom=check

CID_105648772_JID_6261_Energie_neutraal

0 1

--Link1--
%chk=JID_6261.chk
%mem=8GB
%nprocshared=4
# B3LYP/6-311++G(d,p) empiricaldispersion=gd3bj scf=xqc pop=npa geom=check

CID_105648772_JID_6261_Energie_kation

1 2

--Link1--
%chk=JID_6261.chk
%mem=8GB
%nprocshared=4
# B3LYP/6-311++G(d,p) empiricaldispersion=gd3bj scf=xqc pop=npa geom=check

CID_105648772_JID_6261_Energie_anion

-1 2
