%chk=JID_3451.chk
%mem=8GB
%nprocshared=4
# opt freq B3LYP/6-31G(d) empiricaldispersion=gd3bj scf=xqc

CID_73023141_JID_3451_neutraal

0 1
C          1.85200        1.01100       -0.73100
C          2.53854        0.06073        0.26014
C          1.80868       -1.29722        0.29210
C          0.34673       -1.05244        0.71121
C         -0.34776       -0.14607       -0.32582
C          0.66687        0.29700       -1.40755
C          1.21713       -0.94336       -2.13924
C          1.81531       -1.92334       -1.11788
O          3.14541       -2.24621       -1.50850
O         -0.88806        1.00404        0.34608
C         -2.22054        1.12348       -0.14765
C         -2.61256       -0.30188       -0.41575
O         -1.42008       -0.87336       -0.95098
H          1.51470        1.91482       -0.21046
H          2.57531        1.34147       -1.48633
H          3.58954       -0.07442       -0.02110
H          2.54106        0.51060        1.26037
H          2.30917       -1.95844        1.00842
H          0.32716       -0.59279        1.70714
H         -0.17175       -2.01554        0.79490
H          0.19117        0.97144       -2.12888
H          0.41188       -1.43976       -2.69392
H          1.96276       -0.64195       -2.88539
H          1.23988       -2.85661       -1.12276
H          3.49299       -2.88496       -0.86286
H         -2.19226        1.71573       -1.06864
H         -2.86210        1.62065        0.58383
H         -3.44035       -0.40011       -1.12212
H         -2.85890       -0.83386        0.50953

--Link1--
%chk=JID_3451.chk
%mem=8GB
%nprocshared=4
# B3LYP/6-311++G(d,p) empiricaldispersion=gd3bj scf=xqc pop=npa geom=check

CID_73023141_JID_3451_Energie_neutraal

0 1

--Link1--
%chk=JID_3451.chk
%mem=8GB
%nprocshared=4
# B3LYP/6-311++G(d,p) empiricaldispersion=gd3bj scf=xqc pop=npa geom=check

CID_73023141_JID_3451_Energie_kation

1 2

--Link1--
%chk=JID_3451.chk
%mem=8GB
%nprocshared=4
# B3LYP/6-311++G(d,p) empiricaldispersion=gd3bj scf=xqc pop=npa geom=check

CID_73023141_JID_3451_Energie_anion

-1 2
