%chk=JID_9147.chk
%mem=8GB
%nprocshared=4
# opt freq B3LYP/6-31G(d) empiricaldispersion=gd3bj scf=xqc

CID_136975877_JID_9147_neutraal

0 1
C          1.06641        0.06023       -0.04429
C          0.50838       -0.45027       -1.35998
C          0.96923       -1.86477       -1.60420
N          0.25278       -2.85956       -1.20051
C          0.70583       -4.13848       -1.41810
C          1.87669       -4.36769       -2.03814
C          2.69282       -3.23364       -2.48356
O          3.76726       -3.39501       -3.04992
N          2.17355       -2.00629       -2.22277
N         -0.04825       -5.22233       -1.00618
C         -1.20068       -5.15155       -0.12448
C         -2.37735       -5.93556       -0.71126
C         -2.47255       -7.41102       -0.26658
C         -3.75519       -8.02916       -0.85217
C         -3.90478       -9.50636       -0.49689
C         -2.68047      -10.34155       -0.88776
C         -1.40566       -9.72232       -0.30479
C         -1.23934       -8.24158       -0.64853
C         -2.57796      -10.52868       -2.40377
H          0.73757       -0.56623        0.79166
H          0.72865        1.08436        0.14146
H          2.16148        0.05677       -0.05101
H         -0.58651       -0.42684       -1.34041
H          0.84435        0.19273       -2.18081
H          2.26581       -5.35550       -2.23620
H          2.71694       -1.21159       -2.52354
H          0.40463       -6.12461       -1.08010
H         -0.93017       -5.52538        0.86916
H         -1.52262       -4.11236        0.00904
H         -2.36807       -5.87174       -1.80714
H         -3.29881       -5.43646       -0.38193
H         -2.56321       -7.42814        0.82848
H         -4.63070       -7.48543       -0.47608
H         -3.76344       -7.91064       -1.94261
H         -4.80625       -9.90885       -0.97392
H         -4.06156       -9.59268        0.58616
H         -2.80090      -11.34130       -0.45054
H         -0.52401      -10.27816       -0.64558
H         -1.43264       -9.82541        0.78797
H         -1.02773       -8.13021       -1.71852
H         -0.35969       -7.87411       -0.10914
H         -1.72737      -11.17164       -2.65422
H         -3.48215      -11.00800       -2.79385
H         -2.44665       -9.58145       -2.93481

--Link1--
%chk=JID_9147.chk
%mem=8GB
%nprocshared=4
# B3LYP/6-311++G(d,p) empiricaldispersion=gd3bj scf=xqc pop=npa geom=check

CID_136975877_JID_9147_Energie_neutraal

0 1

--Link1--
%chk=JID_9147.chk
%mem=8GB
%nprocshared=4
# B3LYP/6-311++G(d,p) empiricaldispersion=gd3bj scf=xqc pop=npa geom=check

CID_136975877_JID_9147_Energie_kation

1 2

--Link1--
%chk=JID_9147.chk
%mem=8GB
%nprocshared=4
# B3LYP/6-311++G(d,p) empiricaldispersion=gd3bj scf=xqc pop=npa geom=check

CID_136975877_JID_9147_Energie_anion

-1 2
