%chk=JID_10658.chk
%mem=8GB
%nprocshared=4
# opt freq B3LYP/6-31G(d) empiricaldispersion=gd3bj scf=xqc

CID_107264417_JID_10658_neutraal

0 1
C          0.99135       -0.06948       -0.07140
C         -0.15118        0.55157       -0.86155
C         -0.93052        1.60441       -0.07047
C         -0.13276        2.85717        0.28420
O          0.13241        3.63462       -0.88190
C          1.48628        3.60586       -1.33218
C          2.26913        4.84762       -0.86796
C          2.61224        4.86719        0.63103
S          3.71876        3.49487        1.15676
C          3.08006        3.17637        2.79069
C          2.95624        4.18700        3.74496
C          2.41612        3.90262        4.99925
C          2.00500        2.60462        5.30983
C          2.14924        1.56545        4.37786
C          2.69125        1.87220        3.11773
C          1.69221        0.14075        4.66587
C          2.17335       -0.34856        6.03900
N          0.23357        0.07029        4.50930
C         -0.28067       -1.28950        4.48412
O          3.46517        5.01159       -1.63991
H          1.78246        0.65508        0.13387
H          1.43753       -0.89071       -0.64152
H          0.63687       -0.47392        0.88210
H          0.23263        0.97870       -1.79429
H         -0.84615       -0.24746       -1.14712
H         -1.80098        1.89854       -0.66982
H         -1.31064        1.15015        0.85237
H         -0.74963        3.48262        0.93879
H          0.77353        2.61318        0.84038
H          1.99177        2.66831       -1.08178
H          1.44155        3.62180       -2.42785
H          1.65060        5.73317       -1.06162
H          3.14166        5.79615        0.86961
H          1.68655        4.85269        1.21448
H          3.27527        5.20153        3.52210
H          2.30981        4.69550        5.73529
H          1.56775        2.41553        6.28679
H          2.79238        1.08254        2.37578
H          2.15841       -0.51049        3.91394
H          1.65793        0.15743        6.86269
H          2.00599       -1.42437        6.15666
H          3.24845       -0.17256        6.16033
H         -0.21308        0.59551        5.25869
H         -0.15316       -1.79628        5.44515
H         -1.35332       -1.26441        4.26722
H          0.19644       -1.88267        3.69744
H          3.20568        5.07220       -2.57535

--Link1--
%chk=JID_10658.chk
%mem=8GB
%nprocshared=4
# B3LYP/6-311++G(d,p) empiricaldispersion=gd3bj scf=xqc pop=npa geom=check

CID_107264417_JID_10658_Energie_neutraal

0 1

--Link1--
%chk=JID_10658.chk
%mem=8GB
%nprocshared=4
# B3LYP/6-311++G(d,p) empiricaldispersion=gd3bj scf=xqc pop=npa geom=check

CID_107264417_JID_10658_Energie_kation

1 2

--Link1--
%chk=JID_10658.chk
%mem=8GB
%nprocshared=4
# B3LYP/6-311++G(d,p) empiricaldispersion=gd3bj scf=xqc pop=npa geom=check

CID_107264417_JID_10658_Energie_anion

-1 2
