%chk=JID_2784.chk
%mem=8GB
%nprocshared=4
# opt freq B3LYP/6-31G(d) empiricaldispersion=gd3bj scf=xqc

CID_144842850_JID_2784_neutraal

0 1
C          2.17000       -0.13900       -0.02600
N          0.78287        0.00893        0.33237
C         -0.13034       -0.97022        0.62801
N         -1.29567       -0.38944        0.87001
C         -1.02663        0.93931        0.73416
N          0.23441        1.23522        0.41915
C          0.21594       -2.44000        0.61865
N         -0.61555       -3.29993        1.48484
C         -0.17894       -4.69606        1.39139
C         -0.55555       -2.87107        2.88511
O          0.23468       -2.87339       -0.75312
C         -1.03506       -2.83554       -1.40206
H          2.55913        0.81908       -0.38078
H          2.72139       -0.45899        0.86129
H          2.25322       -0.88196       -0.82246
H         -1.77120        1.71313        0.87046
H          1.25522       -2.53434        0.96142
H          0.86524       -4.82514        1.69931
H         -0.80337       -5.33614        2.02542
H         -0.28806       -5.08331        0.37295
H          0.47000       -2.87072        3.27282
H         -0.97785       -1.87141        3.02459
H         -1.15622       -3.53723        3.51544
H         -1.79738       -3.38635       -0.84413
H         -1.35974       -1.80557       -1.57322
H         -0.92226       -3.31340       -2.37962

--Link1--
%chk=JID_2784.chk
%mem=8GB
%nprocshared=4
# B3LYP/6-311++G(d,p) empiricaldispersion=gd3bj scf=xqc pop=npa geom=check

CID_144842850_JID_2784_Energie_neutraal

0 1

--Link1--
%chk=JID_2784.chk
%mem=8GB
%nprocshared=4
# B3LYP/6-311++G(d,p) empiricaldispersion=gd3bj scf=xqc pop=npa geom=check

CID_144842850_JID_2784_Energie_kation

1 2

--Link1--
%chk=JID_2784.chk
%mem=8GB
%nprocshared=4
# B3LYP/6-311++G(d,p) empiricaldispersion=gd3bj scf=xqc pop=npa geom=check

CID_144842850_JID_2784_Energie_anion

-1 2
