%chk=JID_3863.chk
%mem=8GB
%nprocshared=4
# opt freq B3LYP/6-31G(d) empiricaldispersion=gd3bj scf=xqc

CID_148270283_JID_3863_neutraal

0 1
C          1.06529        0.04081        0.06381
N          0.23939       -1.09205        0.46252
O         -1.12690       -0.69623        0.13445
C         -1.94138       -0.85338        1.29303
C         -3.43327       -0.91322        0.90002
C         -4.06162        0.21987        1.73932
C         -3.20576        0.16498        3.00968
C         -1.89240        0.36442        2.24693
C         -2.14969        1.66806        1.45775
C         -3.65372        1.56569        1.10609
C         -4.31327        2.80284        1.71726
C         -3.17843        3.80952        1.83064
C         -1.99521        2.95829        2.26545
H          0.88912        0.31844       -0.98051
H          0.87071        0.90808        0.70177
H          2.12192       -0.22141        0.17212
H          0.38779       -1.85883       -0.19596
H         -1.67976       -1.78090        1.82145
H         -3.60426       -0.79036       -0.17430
H         -3.85587       -1.87774        1.20533
H         -5.13695        0.10557        1.89098
H         -3.42742        0.95966        3.72674
H         -3.26334       -0.80082        3.52393
H         -0.98986        0.39772        2.86132
H         -1.54267        1.73488        0.54848
H         -3.80249        1.56418        0.01962
H         -5.12701        3.17886        1.08917
H         -4.73564        2.59297        2.70635
H         -2.97828        4.26746        0.85470
H         -3.40076        4.60756        2.54462
H         -1.04126        3.45305        2.05721
H         -2.03645        2.77227        3.34447

--Link1--
%chk=JID_3863.chk
%mem=8GB
%nprocshared=4
# B3LYP/6-311++G(d,p) empiricaldispersion=gd3bj scf=xqc pop=npa geom=check

CID_148270283_JID_3863_Energie_neutraal

0 1

--Link1--
%chk=JID_3863.chk
%mem=8GB
%nprocshared=4
# B3LYP/6-311++G(d,p) empiricaldispersion=gd3bj scf=xqc pop=npa geom=check

CID_148270283_JID_3863_Energie_kation

1 2

--Link1--
%chk=JID_3863.chk
%mem=8GB
%nprocshared=4
# B3LYP/6-311++G(d,p) empiricaldispersion=gd3bj scf=xqc pop=npa geom=check

CID_148270283_JID_3863_Energie_anion

-1 2
