%chk=JID_6601.chk
%mem=8GB
%nprocshared=4
# opt freq B3LYP/6-31G(d) empiricaldispersion=gd3bj scf=xqc

CID_136857895_JID_6601_neutraal

0 1
C          0.90934       -0.04057       -0.01162
C          1.12959       -1.49354       -0.40179
C          1.14513       -2.49151        0.77725
C         -0.18686       -2.47840        1.55637
S         -0.47078       -4.19900        2.07934
C          0.54092       -4.83189        0.78754
N          0.48363       -6.08007        0.53547
C          1.26740       -6.63667       -0.56109
C          0.38853       -6.83662       -1.80049
C         -0.07579       -5.54602       -2.49154
C          1.04135       -4.74589       -3.17339
C          1.53429       -5.38404       -4.47494
O          1.17274       -4.60467       -5.61627
C         -0.19921       -4.72596       -5.96720
N          1.25848       -3.82937        0.21007
C          2.34409       -2.24745        1.70531
H         -0.03727        0.09628        0.51917
H          0.87979        0.58562       -0.90945
H          1.71910        0.33165        0.62241
H          0.34222       -1.78099       -1.11206
H          2.07241       -1.56845       -0.95990
H         -0.17201       -1.80395        2.41767
H         -1.02586       -2.19806        0.91044
H          2.17086       -6.06512       -0.79138
H          1.62538       -7.62068       -0.23503
H          0.93199       -7.46048       -2.51903
H         -0.50400       -7.40520       -1.50919
H         -0.83736       -5.80621       -3.23653
H         -0.58155       -4.90212       -1.76391
H          0.67956       -3.72864       -3.36582
H          1.88974       -4.64501       -2.49045
H          2.62969       -5.40131       -4.45991
H          1.20246       -6.41961       -4.60586
H         -0.46631       -5.77414       -6.13098
H         -0.83845       -4.28761       -5.19609
H         -0.36249       -4.17595       -6.89806
H          2.08797       -4.06302       -0.31505
H          3.28444       -2.25673        1.14202
H          2.26689       -1.28359        2.21856
H          2.42564       -3.02363        2.47485

--Link1--
%chk=JID_6601.chk
%mem=8GB
%nprocshared=4
# B3LYP/6-311++G(d,p) empiricaldispersion=gd3bj scf=xqc pop=npa geom=check

CID_136857895_JID_6601_Energie_neutraal

0 1

--Link1--
%chk=JID_6601.chk
%mem=8GB
%nprocshared=4
# B3LYP/6-311++G(d,p) empiricaldispersion=gd3bj scf=xqc pop=npa geom=check

CID_136857895_JID_6601_Energie_kation

1 2

--Link1--
%chk=JID_6601.chk
%mem=8GB
%nprocshared=4
# B3LYP/6-311++G(d,p) empiricaldispersion=gd3bj scf=xqc pop=npa geom=check

CID_136857895_JID_6601_Energie_anion

-1 2
