%chk=JID_5051.chk
%mem=8GB
%nprocshared=4
# opt freq B3LYP/6-31G(d) empiricaldispersion=gd3bj scf=xqc

CID_147599209_JID_5051_neutraal

0 1
C          0.93561        0.05915        0.04852
N         -0.39126       -0.36646       -0.38972
C         -1.22802       -0.67105        0.73132
C         -1.39085       -2.03470        1.03696
C         -2.06292       -2.43249        2.18737
C         -2.57189       -1.46583        3.05166
C         -2.46345       -0.09108        2.75973
C         -1.77650        0.35258        1.58608
N         -1.64810        1.71692        1.21543
C         -1.95610        2.79859        2.14008
C         -2.02302        1.99820       -0.17824
N         -2.89786        0.79497        3.78309
C         -2.17445       -3.88248        2.46839
O         -1.73577       -4.77949        1.77257
O         -2.82812       -4.14645        3.61366
H          0.90496        0.96802        0.65722
H          1.54435        0.27856       -0.83445
H          1.43994       -0.73384        0.61193
H         -0.32107       -1.16964       -1.00919
H         -0.96125       -2.79119        0.38399
H         -3.06255       -1.77928        3.96989
H         -1.38683        2.70849        3.06998
H         -1.64779        3.75817        1.70663
H         -3.03044        2.87173        2.34016
H         -1.13089        2.05944       -0.80918
H         -2.72098        1.26039       -0.59126
H         -2.52438        2.97034       -0.26349
H         -3.57349        0.36765        4.40908
H         -2.08620        1.10381        4.31452
H         -2.82553       -5.12561        3.66191

--Link1--
%chk=JID_5051.chk
%mem=8GB
%nprocshared=4
# B3LYP/6-311++G(d,p) empiricaldispersion=gd3bj scf=xqc pop=npa geom=check

CID_147599209_JID_5051_Energie_neutraal

0 1

--Link1--
%chk=JID_5051.chk
%mem=8GB
%nprocshared=4
# B3LYP/6-311++G(d,p) empiricaldispersion=gd3bj scf=xqc pop=npa geom=check

CID_147599209_JID_5051_Energie_kation

1 2

--Link1--
%chk=JID_5051.chk
%mem=8GB
%nprocshared=4
# B3LYP/6-311++G(d,p) empiricaldispersion=gd3bj scf=xqc pop=npa geom=check

CID_147599209_JID_5051_Energie_anion

-1 2
