%chk=JID_8353.chk
%mem=8GB
%nprocshared=4
# opt freq B3LYP/6-31G(d) empiricaldispersion=gd3bj scf=xqc

CID_62020116_JID_8353_neutraal

0 1
C          0.93827       -0.02817        0.07345
C          0.61708       -1.06679       -1.01032
C          1.72142       -2.12875       -1.05808
N         -0.76397       -1.63106       -0.96976
C         -1.74631       -0.59436       -1.36888
C         -2.93984       -1.14151       -2.16574
C         -4.17816       -1.43807       -1.33203
O         -5.24254       -1.85791       -2.17953
C         -1.14093       -2.22387        0.33871
C         -0.40947       -3.52993        0.67749
O          0.33322       -3.55182        1.66701
N         -0.64081       -4.66802       -0.09337
C         -1.64125       -4.76432       -1.15389
C         -0.98588       -4.79239       -2.49894
C         -1.06469       -5.81087       -3.36615
C          0.08578       -5.88482        0.25583
C          1.41863       -5.90652       -0.43373
C          2.59625       -5.77596        0.19227
H          1.00609       -0.48064        1.06787
H          0.18833        0.76826        0.10598
H          1.90418        0.44667       -0.13336
H          0.71507       -0.55336       -1.97738
H          1.91316       -2.58105       -0.08319
H          1.48684       -2.91754       -1.77833
H          2.66403       -1.67180       -1.38235
H         -2.07874        0.00264       -0.50998
H         -1.26088        0.11870       -2.04865
H         -3.21867       -0.39389       -2.92126
H         -2.65422       -2.02536       -2.74927
H         -4.01003       -2.24206       -0.61548
H         -4.50770       -0.55125       -0.78141
H         -5.41844       -1.14132       -2.81308
H         -0.97841       -1.51335        1.15771
H         -2.20635       -2.45671        0.38720
H         -2.23937       -5.66582       -0.97502
H         -2.34031       -3.92995       -1.12021
H         -0.43109       -3.90111       -2.78203
H         -0.57127       -5.75351       -4.33166
H         -1.61631       -6.71703       -3.13679
H          0.20883       -5.93854        1.34400
H         -0.49865       -6.76441       -0.03629
H          1.41335       -6.05470       -1.50972
H          3.52863       -5.80161       -0.36167
H          2.64974       -5.61269        1.26504

--Link1--
%chk=JID_8353.chk
%mem=8GB
%nprocshared=4
# B3LYP/6-311++G(d,p) empiricaldispersion=gd3bj scf=xqc pop=npa geom=check

CID_62020116_JID_8353_Energie_neutraal

0 1

--Link1--
%chk=JID_8353.chk
%mem=8GB
%nprocshared=4
# B3LYP/6-311++G(d,p) empiricaldispersion=gd3bj scf=xqc pop=npa geom=check

CID_62020116_JID_8353_Energie_kation

1 2

--Link1--
%chk=JID_8353.chk
%mem=8GB
%nprocshared=4
# B3LYP/6-311++G(d,p) empiricaldispersion=gd3bj scf=xqc pop=npa geom=check

CID_62020116_JID_8353_Energie_anion

-1 2
