%chk=JID_10977.chk
%mem=8GB
%nprocshared=4
# opt freq B3LYP/6-31G(d) empiricaldispersion=gd3bj scf=xqc

CID_61039086_JID_10977_neutraal

0 1
C          0.91839       -0.04694        0.03370
C          0.21539       -1.27825       -0.45298
C          0.42148       -2.54857        0.08616
C         -0.15425       -3.65439       -0.55573
C         -0.97188       -3.48042       -1.66698
C         -1.23467       -2.16527       -2.03590
N         -0.64126       -1.07630       -1.48766
N         -1.67269       -4.56376       -2.20850
C          1.31416       -2.82531        1.22538
O          2.24753       -3.60842        1.04700
N          1.19655       -2.17527        2.43058
C          0.17271       -1.40391        2.96864
C         -1.20121       -1.49161        2.78288
S         -2.01524       -0.16648        3.53465
C         -0.58954        0.38507        4.27924
C          0.49683       -0.37341        3.91537
C         -2.05568       -2.49732        2.18005
O         -3.17060       -2.31152        1.70599
O         -1.48894       -3.73183        2.32684
C         -2.33555       -4.80994        1.92340
H          0.34200        0.43737        0.82506
H          1.02565        0.67183       -0.78643
H          1.92717       -0.27019        0.39286
H          0.03724       -4.65258       -0.16917
H         -1.94403       -1.93871       -2.82704
H         -1.18779       -5.45244       -2.11878
H         -2.00244       -4.40841       -3.15753
H          2.05399       -2.22256        2.97065
H         -0.61023        1.24328        4.93756
H          1.49827       -0.15278        4.26571
H         -3.18410       -4.89714        2.60890
H         -2.68399       -4.67887        0.89443
H         -1.75256       -5.73362        1.97371

--Link1--
%chk=JID_10977.chk
%mem=8GB
%nprocshared=4
# B3LYP/6-311++G(d,p) empiricaldispersion=gd3bj scf=xqc pop=npa geom=check

CID_61039086_JID_10977_Energie_neutraal

0 1

--Link1--
%chk=JID_10977.chk
%mem=8GB
%nprocshared=4
# B3LYP/6-311++G(d,p) empiricaldispersion=gd3bj scf=xqc pop=npa geom=check

CID_61039086_JID_10977_Energie_kation

1 2

--Link1--
%chk=JID_10977.chk
%mem=8GB
%nprocshared=4
# B3LYP/6-311++G(d,p) empiricaldispersion=gd3bj scf=xqc pop=npa geom=check

CID_61039086_JID_10977_Energie_anion

-1 2
