%chk=JID_8731.chk
%mem=8GB
%nprocshared=4
# opt freq B3LYP/6-31G(d) empiricaldispersion=gd3bj scf=xqc

CID_54406300_JID_8731_neutraal

0 1
C          1.06542       -0.06837       -0.03233
C          0.54208       -1.47720       -0.28267
C          1.65243       -2.55222       -0.37836
C          2.52778       -2.63022        0.88778
C          1.77490       -3.19950        2.08915
C          1.17045       -4.56623        1.78002
C          0.31937       -4.55096        0.51260
C          1.09297       -3.97142       -0.67868
N          0.26163       -3.99866       -1.88052
C          0.71237       -3.96901       -3.17960
O          0.01727       -3.43121       -4.03839
C          1.99450       -4.56757       -3.48707
C          2.97589       -3.99497       -4.27319
N          3.99460       -4.89447       -4.33310
N          3.75056       -6.02711       -3.65291
C          2.51235       -5.85478       -3.16888
C          1.85778       -6.96342       -2.42879
C          5.24241       -4.74886       -5.04198
H          1.47962        0.03448        0.97458
H          0.24883        0.65528       -0.12449
H          1.83847        0.19982       -0.75910
H         -0.18194       -1.72507        0.50033
H         -0.01672       -1.45211       -1.22542
H          2.30523       -2.26205       -1.21328
H          3.39123       -3.27571        0.67785
H          2.94534       -1.65071        1.14154
H          0.98324       -2.50737        2.39807
H          2.46071       -3.29004        2.93942
H          0.56370       -4.90240        2.62835
H          1.97924       -5.29804        1.66019
H         -0.59936       -3.97920        0.69059
H         -0.00122       -5.57483        0.28256
H          1.95801       -4.61871       -0.84975
H         -0.63773       -3.53793       -1.81352
H          3.01533       -3.04134       -4.78115
H          2.07570       -7.92737       -2.90078
H          2.21911       -6.99921       -1.39634
H          0.77027       -6.84462       -2.41013
H          6.05971       -4.82617       -4.32063
H          5.31033       -5.54524       -5.78739
H          5.27007       -3.77365       -5.53418

--Link1--
%chk=JID_8731.chk
%mem=8GB
%nprocshared=4
# B3LYP/6-311++G(d,p) empiricaldispersion=gd3bj scf=xqc pop=npa geom=check

CID_54406300_JID_8731_Energie_neutraal

0 1

--Link1--
%chk=JID_8731.chk
%mem=8GB
%nprocshared=4
# B3LYP/6-311++G(d,p) empiricaldispersion=gd3bj scf=xqc pop=npa geom=check

CID_54406300_JID_8731_Energie_kation

1 2

--Link1--
%chk=JID_8731.chk
%mem=8GB
%nprocshared=4
# B3LYP/6-311++G(d,p) empiricaldispersion=gd3bj scf=xqc pop=npa geom=check

CID_54406300_JID_8731_Energie_anion

-1 2
