%chk=JID_573.chk
%mem=8GB
%nprocshared=4
# opt freq B3LYP/6-31G(d) empiricaldispersion=gd3bj scf=xqc

CID_54493948_JID_573_neutraal

0 1
C          1.05872        0.05450       -0.05984
C          0.81800        0.20861       -1.55380
C          1.17760       -1.03982       -2.36325
C          0.40820       -2.31446       -1.99453
C         -1.11783       -2.22531       -2.10478
C         -1.59830       -1.97650       -3.50439
C         -2.30819       -2.84116       -4.19808
C         -2.91667       -4.11310       -4.21935
C         -2.96008       -3.10331       -5.41959
C         -4.23060       -2.42000       -5.78135
H          0.38647       -0.68795        0.38005
H          0.87908        1.00672        0.44957
H          2.09083       -0.24840        0.14268
H         -0.22534        0.49174       -1.72989
H          1.42911        1.04278       -1.91958
H          1.03304       -0.81996       -3.42771
H          2.24966       -1.24091       -2.24167
H          0.76606       -3.12872       -2.63828
H          0.66705       -2.60804       -0.97017
H         -1.54175       -3.16366       -1.72445
H         -1.50404       -1.43540       -1.45136
H         -1.35474       -1.01892       -3.95628
H         -2.26141       -4.96938       -4.29743
H         -3.80336       -4.24108       -3.61425
H         -2.33469       -3.30881       -6.27889
H         -4.02038       -1.47229       -6.28758
H         -4.81064       -3.04715       -6.46585
H         -4.85571       -2.20760       -4.90714

--Link1--
%chk=JID_573.chk
%mem=8GB
%nprocshared=4
# B3LYP/6-311++G(d,p) empiricaldispersion=gd3bj scf=xqc pop=npa geom=check

CID_54493948_JID_573_Energie_neutraal

0 1

--Link1--
%chk=JID_573.chk
%mem=8GB
%nprocshared=4
# B3LYP/6-311++G(d,p) empiricaldispersion=gd3bj scf=xqc pop=npa geom=check

CID_54493948_JID_573_Energie_kation

1 2

--Link1--
%chk=JID_573.chk
%mem=8GB
%nprocshared=4
# B3LYP/6-311++G(d,p) empiricaldispersion=gd3bj scf=xqc pop=npa geom=check

CID_54493948_JID_573_Energie_anion

-1 2
