%chk=JID_8709.chk
%mem=8GB
%nprocshared=4
# opt freq B3LYP/6-31G(d) empiricaldispersion=gd3bj scf=xqc

CID_61841655_JID_8709_neutraal

0 1
C          1.09042        0.04260       -0.00313
C          0.55087        0.10451        1.43639
C          1.26408        1.15263        2.37705
C          1.08335        2.61832        1.94758
C          0.74011        1.01747        3.82320
C          2.78317        0.86339        2.41052
N         -0.94223        0.12525        1.48407
C         -1.52995       -0.99582        2.21937
C         -1.65633        1.10028        0.77890
O         -1.04952        1.92822        0.08764
C         -3.21006        1.15423        0.78218
C         -3.66755        2.42753        0.00373
C         -5.17929        2.50857       -0.21677
C         -5.70300        1.26377       -0.91870
C         -5.30858       -0.00211       -0.17103
C         -3.79800       -0.08417        0.06700
C         -3.68525        1.28782        2.17475
N         -4.07900        1.37468        3.26391
H          1.08374        1.01283       -0.50496
H          0.49546       -0.65109       -0.60790
H          2.12245       -0.32254       -0.01741
H          0.82458       -0.87902        1.84852
H          0.04718        2.95013        2.06195
H          1.69074        3.28525        2.57183
H          1.39385        2.78239        0.91148
H          0.88214       -0.00050        4.20227
H          1.27056        1.69587        4.50178
H         -0.32522        1.26243        3.89110
H          2.98240       -0.17951        2.68113
H          3.25352        1.05949        1.44130
H          3.29156        1.49645        3.14737
H         -1.01478       -1.11760        3.17609
H         -2.58687       -0.88087        2.43446
H         -1.39088       -1.90198        1.62158
H         -3.33590        3.33539        0.52601
H         -3.18715        2.45018       -0.98439
H         -5.41226        3.39335       -0.82046
H         -5.69502        2.63872        0.74191
H         -5.30366        1.22416       -1.93965
H         -6.79398        1.31847       -1.00533
H         -5.63346       -0.87835       -0.74412
H         -5.83765       -0.04230        0.78880
H         -3.29788       -0.20453       -0.90412
H         -3.60370       -1.01134        0.61228

--Link1--
%chk=JID_8709.chk
%mem=8GB
%nprocshared=4
# B3LYP/6-311++G(d,p) empiricaldispersion=gd3bj scf=xqc pop=npa geom=check

CID_61841655_JID_8709_Energie_neutraal

0 1

--Link1--
%chk=JID_8709.chk
%mem=8GB
%nprocshared=4
# B3LYP/6-311++G(d,p) empiricaldispersion=gd3bj scf=xqc pop=npa geom=check

CID_61841655_JID_8709_Energie_kation

1 2

--Link1--
%chk=JID_8709.chk
%mem=8GB
%nprocshared=4
# B3LYP/6-311++G(d,p) empiricaldispersion=gd3bj scf=xqc pop=npa geom=check

CID_61841655_JID_8709_Energie_anion

-1 2
