%chk=JID_3868.chk
%mem=8GB
%nprocshared=4
# opt freq B3LYP/6-31G(d) empiricaldispersion=gd3bj scf=xqc

CID_130175729_JID_3868_neutraal

0 1
C          1.05491        0.06464       -0.05298
C          0.91005       -1.34607       -0.55711
C          1.69200       -2.31841       -0.07195
C          1.54585       -3.68419       -0.59577
O          2.26485       -4.57646       -0.14663
C          0.54469       -3.91926       -1.69396
C         -0.24741       -2.68770       -2.02038
N         -0.06739       -1.51232       -1.50589
C          1.26243       -4.38097       -2.96945
N          1.64464       -5.79356       -2.87974
C          2.41537       -6.26459       -4.03563
C          3.86163       -5.76509       -4.01378
C          2.39752       -7.79413       -4.01404
H          0.11495        0.40603        0.39345
H          1.31034        0.73706       -0.87880
H          1.83835        0.15631        0.70684
H          2.44772       -2.15850        0.68586
H         -0.17999       -4.66868       -1.35276
H         -1.05403       -2.80150       -2.76542
H          0.60283       -4.25356       -3.83686
H          2.14181       -3.74783       -3.13647
H          2.18213       -5.94897       -2.01843
H          1.93236       -5.93910       -4.96512
H          4.36931       -6.04636       -3.08426
H          4.42934       -6.19450       -4.84661
H          3.91559       -4.67667       -4.11287
H          1.37082       -8.17544       -4.05157
H          2.93167       -8.19899       -4.88057
H          2.87387       -8.19134       -3.11031

--Link1--
%chk=JID_3868.chk
%mem=8GB
%nprocshared=4
# B3LYP/6-311++G(d,p) empiricaldispersion=gd3bj scf=xqc pop=npa geom=check

CID_130175729_JID_3868_Energie_neutraal

0 1

--Link1--
%chk=JID_3868.chk
%mem=8GB
%nprocshared=4
# B3LYP/6-311++G(d,p) empiricaldispersion=gd3bj scf=xqc pop=npa geom=check

CID_130175729_JID_3868_Energie_kation

1 2

--Link1--
%chk=JID_3868.chk
%mem=8GB
%nprocshared=4
# B3LYP/6-311++G(d,p) empiricaldispersion=gd3bj scf=xqc pop=npa geom=check

CID_130175729_JID_3868_Energie_anion

-1 2
