%chk=JID_5221.chk
%mem=8GB
%nprocshared=4
# opt freq B3LYP/6-31G(d) empiricaldispersion=gd3bj scf=xqc

CID_71642771_JID_5221_neutraal

0 1
C          1.00831       -0.05490       -0.08317
C          0.35709        0.18309        1.28605
C          0.87033        1.43618        1.95332
C          1.74378        2.42912        1.54563
C          1.86274        3.36454        2.60176
C          1.05868        2.92717        3.62828
N          0.45492        1.76691        3.22500
N         -1.12307        0.18192        1.29713
C         -1.71887        1.17289        0.38664
C         -3.23752        1.23355        0.56502
C         -3.86994       -0.14237        0.32561
C         -3.19587       -1.17194        1.24077
C         -1.67646       -1.15601        1.05240
N         -5.31922       -0.03411        0.54377
C         -6.05815       -1.19445        0.06982
H          0.79910        0.75501       -0.79024
H          0.67415       -0.99487       -0.53262
H          2.09833       -0.12114        0.01708
H          0.69216       -0.63894        1.93600
H          2.24500        2.48084        0.58775
H          2.46665        4.26248        2.60912
H          0.85584        3.34581        4.60452
H         -0.22398        1.23389        3.75331
H         -1.49171        0.93793       -0.66056
H         -1.32380        2.17483        0.58843
H         -3.65264        1.96744       -0.13722
H         -3.47085        1.59334        1.57656
H         -3.68688       -0.41578       -0.72247
H         -3.43554       -0.96194        2.29172
H         -3.56376       -2.18144        1.02501
H         -1.24377       -1.87457        1.75896
H         -1.43780       -1.50860        0.04167
H         -5.50900        0.11429        1.53478
H         -5.82016       -2.09608        0.64140
H         -7.13107       -1.00811        0.18027
H         -5.86797       -1.38103       -0.99206

--Link1--
%chk=JID_5221.chk
%mem=8GB
%nprocshared=4
# B3LYP/6-311++G(d,p) empiricaldispersion=gd3bj scf=xqc pop=npa geom=check

CID_71642771_JID_5221_Energie_neutraal

0 1

--Link1--
%chk=JID_5221.chk
%mem=8GB
%nprocshared=4
# B3LYP/6-311++G(d,p) empiricaldispersion=gd3bj scf=xqc pop=npa geom=check

CID_71642771_JID_5221_Energie_kation

1 2

--Link1--
%chk=JID_5221.chk
%mem=8GB
%nprocshared=4
# B3LYP/6-311++G(d,p) empiricaldispersion=gd3bj scf=xqc pop=npa geom=check

CID_71642771_JID_5221_Energie_anion

-1 2
