%chk=JID_9437.chk
%mem=8GB
%nprocshared=4
# opt freq B3LYP/6-31G(d) empiricaldispersion=gd3bj scf=xqc

CID_71093418_JID_9437_neutraal

0 1
C          0.99521       -0.07119       -0.07006
O          0.05290       -0.87382       -0.76990
C          0.52488       -1.59535       -1.83236
C         -0.41155       -2.44748       -2.41728
C         -0.06185       -3.24149       -3.50639
C          1.23364       -3.18696       -4.01972
C          2.20252       -2.33701       -3.45375
C          1.82009       -1.53731       -2.35547
C          3.62240       -2.26387       -4.03891
C          4.25954       -3.64910       -4.23675
C          4.69683       -4.37781       -3.11127
C          5.26564       -5.64576       -3.24385
C          5.39995       -6.21835       -4.50433
C          4.96266       -5.52508       -5.62967
C          4.39547       -4.25357       -5.49893
C          3.67359       -1.36676       -5.30762
O          4.54964       -0.54052       -5.54488
O          2.69990       -1.56940       -6.22093
O          4.48139       -1.58620       -3.08350
H          0.47620        0.39391        0.77363
H          1.37801        0.73213       -0.70803
H          1.81104       -0.67883        0.33557
H         -1.42149       -2.49348       -2.01785
H         -0.79847       -3.90237       -3.95523
H          1.47821       -3.81373       -4.87520
H          2.55758       -0.87150       -1.91721
H          4.59153       -3.95120       -2.11393
H          5.59889       -6.18497       -2.36089
H          5.83950       -7.20673       -4.60900
H          5.05855       -5.97731       -6.61385
H          4.05451       -3.75861       -6.40481
H          2.87847       -0.90129       -6.91565
H          5.26131       -1.29752       -3.59555

--Link1--
%chk=JID_9437.chk
%mem=8GB
%nprocshared=4
# B3LYP/6-311++G(d,p) empiricaldispersion=gd3bj scf=xqc pop=npa geom=check

CID_71093418_JID_9437_Energie_neutraal

0 1

--Link1--
%chk=JID_9437.chk
%mem=8GB
%nprocshared=4
# B3LYP/6-311++G(d,p) empiricaldispersion=gd3bj scf=xqc pop=npa geom=check

CID_71093418_JID_9437_Energie_kation

1 2

--Link1--
%chk=JID_9437.chk
%mem=8GB
%nprocshared=4
# B3LYP/6-311++G(d,p) empiricaldispersion=gd3bj scf=xqc pop=npa geom=check

CID_71093418_JID_9437_Energie_anion

-1 2
