%chk=JID_1892.chk
%mem=8GB
%nprocshared=4
# opt freq B3LYP/6-31G(d) empiricaldispersion=gd3bj scf=xqc

CID_12890926_JID_1892_neutraal

0 1
C          1.06522        0.06050       -0.04568
C          0.61790        0.63937       -1.39383
C          0.47382       -0.50219       -2.41906
C         -0.78684        1.25219       -1.18918
N          1.42354        1.74070       -1.94296
C          2.89770        1.78652       -1.88656
C          3.57754        0.55170       -2.50126
C          3.27770        2.99593       -2.78703
C          3.50549        2.05759       -0.46057
N          2.77162        3.05329        0.33264
C          3.55815        3.55336        1.44450
H          0.33873       -0.67627        0.31922
H          1.13926        0.83403        0.72481
H          2.02300       -0.46127       -0.11625
H         -0.28173       -1.22715       -2.09288
H          0.15732       -0.12615       -3.39910
H          1.40509       -1.05700       -2.55832
H         -0.75961        2.08031       -0.47052
H         -1.20105        1.63831       -2.12875
H         -1.49358        0.50683       -0.80534
H          1.10475        1.93867       -2.89064
H          3.19202        0.34007       -3.50518
H          4.65859        0.70884       -2.59777
H          3.44284       -0.34209       -1.88611
H          2.81321        3.92710       -2.44281
H          4.36240        3.15540       -2.80062
H          2.96322        2.83638       -3.82608
H          3.55441        1.12750        0.11467
H          4.54535        2.38661       -0.59332
H          2.44787        3.80931       -0.26610
H          4.45048        4.08512        1.09904
H          2.95689        4.25311        2.03303
H          3.86226        2.74002        2.11130

--Link1--
%chk=JID_1892.chk
%mem=8GB
%nprocshared=4
# B3LYP/6-311++G(d,p) empiricaldispersion=gd3bj scf=xqc pop=npa geom=check

CID_12890926_JID_1892_Energie_neutraal

0 1

--Link1--
%chk=JID_1892.chk
%mem=8GB
%nprocshared=4
# B3LYP/6-311++G(d,p) empiricaldispersion=gd3bj scf=xqc pop=npa geom=check

CID_12890926_JID_1892_Energie_kation

1 2

--Link1--
%chk=JID_1892.chk
%mem=8GB
%nprocshared=4
# B3LYP/6-311++G(d,p) empiricaldispersion=gd3bj scf=xqc pop=npa geom=check

CID_12890926_JID_1892_Energie_anion

-1 2
