%chk=JID_8175.chk
%mem=8GB
%nprocshared=4
# opt freq B3LYP/6-31G(d) empiricaldispersion=gd3bj scf=xqc

CID_117576256_JID_8175_neutraal

0 1
C          0.92659        0.02696       -0.06232
C          0.80066       -0.12116        1.46042
C          0.83711        1.28337        2.09025
C         -0.55189       -0.75183        1.88803
O         -0.71754       -1.33105        2.95874
O         -1.54592       -0.49399        0.99215
C         -2.82415       -1.00396        1.37460
N          1.93657       -0.88121        2.08905
C          2.33623       -2.04464        1.41815
N          1.77623       -3.18904        1.81252
C          2.16975       -4.28713        1.15557
N          3.07412       -4.34328        0.16759
C          3.65136       -3.18478       -0.18061
C          3.29056       -1.99485        0.42227
N          4.60557       -3.13862       -1.21414
C          4.99580       -4.43838       -1.73337
C          6.01819       -4.17556       -2.80028
C          7.30826       -4.53216       -2.73270
H          0.17071        0.71544       -0.45894
H          0.77890       -0.92783       -0.57893
H          1.90389        0.43059       -0.34792
H          0.01673        1.91005        1.72223
H          0.74414        1.23212        3.18184
H          1.78238        1.79014        1.86441
H         -2.78935       -2.09344        1.47142
H         -3.15835       -0.53992        2.30795
H         -3.53970       -0.74903        0.58791
H          1.52363       -1.27694        2.94709
H          1.70972       -5.22349        1.45125
H          3.74764       -1.05789        0.13506
H          5.41584       -2.61407       -0.89583
H          5.41615       -5.07105       -0.94174
H          4.14418       -4.95946       -2.18659
H          5.65646       -3.66300       -3.68898
H          7.98772       -4.30971       -3.55000
H          7.71437       -5.04920       -1.86874

--Link1--
%chk=JID_8175.chk
%mem=8GB
%nprocshared=4
# B3LYP/6-311++G(d,p) empiricaldispersion=gd3bj scf=xqc pop=npa geom=check

CID_117576256_JID_8175_Energie_neutraal

0 1

--Link1--
%chk=JID_8175.chk
%mem=8GB
%nprocshared=4
# B3LYP/6-311++G(d,p) empiricaldispersion=gd3bj scf=xqc pop=npa geom=check

CID_117576256_JID_8175_Energie_kation

1 2

--Link1--
%chk=JID_8175.chk
%mem=8GB
%nprocshared=4
# B3LYP/6-311++G(d,p) empiricaldispersion=gd3bj scf=xqc pop=npa geom=check

CID_117576256_JID_8175_Energie_anion

-1 2
