%chk=JID_5863.chk
%mem=8GB
%nprocshared=4
# opt freq B3LYP/6-31G(d) empiricaldispersion=gd3bj scf=xqc

CID_62277926_JID_5863_neutraal

0 1
C          0.96283        0.06102       -0.06997
C          0.30751       -1.08479        0.69174
C          0.80991       -1.30073        2.13926
C          0.40526       -0.09626        3.05159
C         -1.09069        0.11859        3.25432
C          0.25989       -2.62578        2.76508
N          0.89976       -3.91186        2.39449
C          0.89805       -4.81182        3.56184
C          0.40690       -4.65266        1.19892
C         -1.05180       -4.38094        0.80342
C          1.44217       -4.54037        0.03167
C          2.77873       -5.20230        0.40341
C          0.93684       -5.14628       -1.28165
C          2.33696       -1.39884        2.13472
O          3.08988       -0.57338        2.64961
H          0.80765        1.02220        0.42705
H          0.52566        0.13668       -1.07144
H          2.03792       -0.09917       -0.19428
H         -0.77733       -0.92966        0.69153
H          0.46684       -1.97422        0.08976
H          0.85932       -0.22708        4.04380
H          0.83626        0.83429        2.66248
H         -1.56581       -0.74989        3.71891
H         -1.25283        0.97275        3.92076
H         -1.60285        0.33766        2.31405
H          0.40534       -2.49960        3.84840
H         -0.82833       -2.67632        2.65256
H         -0.11968       -5.09627        3.85173
H          1.47342       -5.72174        3.35582
H          1.38921       -4.34075        4.42108
H          0.40522       -5.72598        1.44372
H         -1.20102       -3.38803        0.37657
H         -1.39728       -5.11207        0.06462
H         -1.71686       -4.49282        1.66722
H          1.67094       -3.49329       -0.17343
H          2.64954       -6.27157        0.60073
H          3.50207       -5.09507       -0.41258
H          3.22326       -4.74202        1.29110
H          0.07777       -4.58934       -1.66917
H          1.71426       -5.10664       -2.05271
H          0.64395       -6.19292       -1.15066
H          2.76491       -2.25387        1.58716

--Link1--
%chk=JID_5863.chk
%mem=8GB
%nprocshared=4
# B3LYP/6-311++G(d,p) empiricaldispersion=gd3bj scf=xqc pop=npa geom=check

CID_62277926_JID_5863_Energie_neutraal

0 1

--Link1--
%chk=JID_5863.chk
%mem=8GB
%nprocshared=4
# B3LYP/6-311++G(d,p) empiricaldispersion=gd3bj scf=xqc pop=npa geom=check

CID_62277926_JID_5863_Energie_kation

1 2

--Link1--
%chk=JID_5863.chk
%mem=8GB
%nprocshared=4
# B3LYP/6-311++G(d,p) empiricaldispersion=gd3bj scf=xqc pop=npa geom=check

CID_62277926_JID_5863_Energie_anion

-1 2
