%chk=JID_6544.chk
%mem=8GB
%nprocshared=4
# opt freq B3LYP/6-31G(d) empiricaldispersion=gd3bj scf=xqc

CID_104105095_JID_6544_neutraal

0 1
C          1.02931        0.07766       -0.05576
C          0.16768       -0.22304        1.16600
C          0.76608        0.24188        2.50294
C          0.85907        1.74942        2.75369
C         -0.39399        2.34769        3.38250
O          1.94231        1.97833        3.66728
N         -1.26156        0.08298        1.04753
C         -1.89112        1.03733        0.26307
C         -3.26105        0.87806        0.00165
C         -3.98088        1.83271       -0.72508
C         -3.35027        2.95232       -1.27415
C         -2.01832        3.16887       -0.93670
C         -1.30401        2.22351       -0.18157
N         -4.08825        3.95094       -1.93305
O         -5.31878        1.62216       -0.96413
C         -6.08111        2.12289        0.13615
H          1.30709        1.12956       -0.14121
H          0.52805       -0.22497       -0.98123
H          1.96979       -0.48244        0.00572
H          0.19241       -1.32113        1.23418
H          0.20540       -0.22093        3.32684
H          1.77632       -0.18512        2.57718
H          1.11862        2.28877        1.84058
H         -0.61532        1.87261        4.34497
H         -0.23796        3.41167        3.59299
H         -1.27323        2.25334        2.74534
H          1.69946        1.57823        4.52015
H         -1.82403       -0.76222        1.12981
H         -3.79068        0.00358        0.36890
H         -1.51717        4.08208       -1.24592
H         -0.28110        2.47150        0.06860
H         -4.92861        3.55511       -2.35188
H         -3.53723        4.48018       -2.60043
H         -5.87363        1.55649        1.05067
H         -5.89844        3.19080        0.29980
H         -7.14036        1.99525       -0.10645

--Link1--
%chk=JID_6544.chk
%mem=8GB
%nprocshared=4
# B3LYP/6-311++G(d,p) empiricaldispersion=gd3bj scf=xqc pop=npa geom=check

CID_104105095_JID_6544_Energie_neutraal

0 1

--Link1--
%chk=JID_6544.chk
%mem=8GB
%nprocshared=4
# B3LYP/6-311++G(d,p) empiricaldispersion=gd3bj scf=xqc pop=npa geom=check

CID_104105095_JID_6544_Energie_kation

1 2

--Link1--
%chk=JID_6544.chk
%mem=8GB
%nprocshared=4
# B3LYP/6-311++G(d,p) empiricaldispersion=gd3bj scf=xqc pop=npa geom=check

CID_104105095_JID_6544_Energie_anion

-1 2
