%chk=JID_5183.chk
%mem=8GB
%nprocshared=4
# opt freq B3LYP/6-31G(d) empiricaldispersion=gd3bj scf=xqc

CID_151484499_JID_5183_neutraal

0 1
C         -2.40700        1.57700       -0.02700
N         -1.59191        0.40985       -0.24514
C         -2.05602       -0.84400       -0.51129
N         -1.07300       -1.70121       -0.65353
C          0.08690       -0.97528       -0.46490
C         -0.21935        0.36709       -0.22536
C          0.75727        1.35159       -0.02862
C          2.09365        0.94816       -0.09498
C          2.43289       -0.38472       -0.32887
C          1.44448       -1.36799       -0.48803
O          1.92524       -2.64476       -0.73283
C          1.20344       -3.71089       -0.09968
C          1.51598       -3.81451        1.39350
O          0.74341       -2.85505        2.12547
N          1.06726       -2.98071        3.54365
H         -2.18530        1.97544        0.96635
H         -2.17152        2.31449       -0.79853
H         -3.46374        1.30415       -0.08714
H         -3.10915       -1.08052       -0.59086
H          0.49747        2.38891        0.15316
H          2.88352        1.68464        0.03645
H          3.48027       -0.67266       -0.37841
H          0.13104       -3.67246       -0.29980
H          1.57015       -4.62500       -0.58086
H          1.24870       -4.81645        1.74877
H          2.58202       -3.63193        1.57280
H          1.36144       -2.02516        3.75247
H          0.13217       -3.07582        3.94263

--Link1--
%chk=JID_5183.chk
%mem=8GB
%nprocshared=4
# B3LYP/6-311++G(d,p) empiricaldispersion=gd3bj scf=xqc pop=npa geom=check

CID_151484499_JID_5183_Energie_neutraal

0 1

--Link1--
%chk=JID_5183.chk
%mem=8GB
%nprocshared=4
# B3LYP/6-311++G(d,p) empiricaldispersion=gd3bj scf=xqc pop=npa geom=check

CID_151484499_JID_5183_Energie_kation

1 2

--Link1--
%chk=JID_5183.chk
%mem=8GB
%nprocshared=4
# B3LYP/6-311++G(d,p) empiricaldispersion=gd3bj scf=xqc pop=npa geom=check

CID_151484499_JID_5183_Energie_anion

-1 2
