%chk=JID_6316.chk
%mem=8GB
%nprocshared=4
# opt freq B3LYP/6-31G(d) empiricaldispersion=gd3bj scf=xqc

CID_61849353_JID_6316_neutraal

0 1
C         -0.02900        0.88300        0.00000
C         -0.19767       -0.50670        0.55266
C          1.17823        0.07445        0.38294
N          2.14789       -0.46804       -0.59388
C          3.26776        0.46231       -0.81789
C          2.84021        1.28634       -2.01585
C          2.22564        0.23347       -2.93184
C          1.64148       -0.80107       -1.94168
N          1.29423        0.87047       -3.86903
C          1.07413        0.10019       -5.10328
C          0.18279       -1.11942       -4.86974
O         -0.86402       -1.04018       -4.22093
N          0.54255       -2.32494       -5.41607
C          1.71224       -2.90982       -5.04536
O          1.75797       -3.85616       -4.27195
N          2.83333       -2.41665       -5.61942
H         -0.29566        1.71751        0.63904
H         -0.27060        1.04574       -1.04138
H         -0.57902       -0.60829        1.56266
H         -0.52940       -1.29373       -0.11251
H          1.65345        0.34933        1.32632
H          4.16927       -0.11644       -1.05468
H          3.50191        1.08459        0.05263
H          2.10649        2.04505       -1.71559
H          3.68410        1.80053       -2.48710
H          3.05257       -0.23331       -3.48456
H          0.55255       -0.85881       -1.99873
H          2.00531       -1.79911       -2.21288
H          0.38973        1.00471       -3.40774
H          0.52655        0.74115       -5.80495
H          2.01946       -0.13129       -5.59301
H         -0.19135       -2.95749       -5.11149
H          2.76469       -2.09486       -6.57554
H          3.66648       -2.95816       -5.41655

--Link1--
%chk=JID_6316.chk
%mem=8GB
%nprocshared=4
# B3LYP/6-311++G(d,p) empiricaldispersion=gd3bj scf=xqc pop=npa geom=check

CID_61849353_JID_6316_Energie_neutraal

0 1

--Link1--
%chk=JID_6316.chk
%mem=8GB
%nprocshared=4
# B3LYP/6-311++G(d,p) empiricaldispersion=gd3bj scf=xqc pop=npa geom=check

CID_61849353_JID_6316_Energie_kation

1 2

--Link1--
%chk=JID_6316.chk
%mem=8GB
%nprocshared=4
# B3LYP/6-311++G(d,p) empiricaldispersion=gd3bj scf=xqc pop=npa geom=check

CID_61849353_JID_6316_Energie_anion

-1 2
