%chk=JID_6118.chk
%mem=8GB
%nprocshared=4
# opt freq B3LYP/6-31G(d) empiricaldispersion=gd3bj scf=xqc

CID_61809963_JID_6118_neutraal

0 1
C          1.03663        0.02405        0.08989
C          0.42829        1.39506        0.34357
N         -0.72733        1.59107       -0.53449
C         -1.31678        2.93560       -0.35748
C         -0.50267        4.01256       -1.10489
O          0.32066        3.67687       -1.95849
N         -0.74125        5.34348       -0.77477
C         -1.84251        5.76211        0.08762
C          0.08792        6.44233       -1.32996
C         -0.18858        6.73723       -2.81048
C          0.84475        6.17198       -3.78039
N          2.20056        6.51803       -3.34234
C          2.49692        5.85183       -2.07034
C          1.57843        6.36346       -0.96229
C          3.21121        6.23461       -4.37176
C          3.36728        4.78136       -4.81212
H          0.30952       -0.77324        0.27774
H          1.89213       -0.13718        0.75371
H          1.38940       -0.06873       -0.94288
H          0.11703        1.45488        1.39261
H          1.19287        2.16094        0.17226
H         -0.40115        1.53937       -1.50585
H         -2.32159        2.92343       -0.79264
H         -1.39389        3.17041        0.70868
H         -1.42364        6.13172        1.02801
H         -2.39484        6.56676       -0.40841
H         -2.55043        4.96071        0.29931
H         -0.27290        7.33128       -0.79096
H         -1.19167        6.39885       -3.09674
H         -0.19101        7.82932       -2.93716
H          0.71258        5.09184       -3.89547
H          0.64918        6.61483       -4.76533
H          3.52917        6.07292       -1.76982
H          2.43047        4.76331       -2.15316
H          1.91067        7.38217       -0.71546
H          1.72679        5.77116       -0.05132
H          2.98714        6.84397       -5.25662
H          4.18389        6.59764       -4.01602
H          2.44498        4.38720       -5.24873
H          4.14715        4.71126       -5.57804
H          3.66573        4.13421       -3.98229

--Link1--
%chk=JID_6118.chk
%mem=8GB
%nprocshared=4
# B3LYP/6-311++G(d,p) empiricaldispersion=gd3bj scf=xqc pop=npa geom=check

CID_61809963_JID_6118_Energie_neutraal

0 1

--Link1--
%chk=JID_6118.chk
%mem=8GB
%nprocshared=4
# B3LYP/6-311++G(d,p) empiricaldispersion=gd3bj scf=xqc pop=npa geom=check

CID_61809963_JID_6118_Energie_kation

1 2

--Link1--
%chk=JID_6118.chk
%mem=8GB
%nprocshared=4
# B3LYP/6-311++G(d,p) empiricaldispersion=gd3bj scf=xqc pop=npa geom=check

CID_61809963_JID_6118_Energie_anion

-1 2
