%chk=JID_2385.chk
%mem=8GB
%nprocshared=4
# opt freq B3LYP/6-31G(d) empiricaldispersion=gd3bj scf=xqc

CID_46941539_JID_2385_neutraal

0 1
C          2.05600        1.02900        0.00400
C          0.75964        1.55414       -0.02390
C         -0.27815        0.64810       -0.03422
C         -0.06835       -0.72685       -0.00369
C          1.20647       -1.25524        0.02310
C          2.29049       -0.36553       -0.02240
N          3.59523       -0.84907        0.13868
N         -1.27184       -1.42702        0.01064
C         -2.34783       -0.56121       -0.01286
O         -3.52726       -0.83367       -0.01022
C         -1.72648        0.86394       -0.04378
O         -2.30891        1.92282       -0.06977
H          2.89831        1.71694        0.04904
H          0.57681        2.62333       -0.01840
H          1.36715       -2.32583        0.08125
H          3.73703       -1.79838       -0.19321
H          4.31840       -0.21712       -0.19316
H         -1.37741       -2.43038        0.03980

--Link1--
%chk=JID_2385.chk
%mem=8GB
%nprocshared=4
# B3LYP/6-311++G(d,p) empiricaldispersion=gd3bj scf=xqc pop=npa geom=check

CID_46941539_JID_2385_Energie_neutraal

0 1

--Link1--
%chk=JID_2385.chk
%mem=8GB
%nprocshared=4
# B3LYP/6-311++G(d,p) empiricaldispersion=gd3bj scf=xqc pop=npa geom=check

CID_46941539_JID_2385_Energie_kation

1 2

--Link1--
%chk=JID_2385.chk
%mem=8GB
%nprocshared=4
# B3LYP/6-311++G(d,p) empiricaldispersion=gd3bj scf=xqc pop=npa geom=check

CID_46941539_JID_2385_Energie_anion

-1 2
