%chk=JID_4755.chk
%mem=8GB
%nprocshared=4
# opt freq B3LYP/6-31G(d) empiricaldispersion=gd3bj scf=xqc

CID_67962217_JID_4755_neutraal

0 1
C          0.92775       -0.00885       -0.06857
C          0.19431        1.34439       -0.10952
C          1.10165        2.38324       -0.77852
C         -1.35429        1.34504       -0.57682
C         -1.91902        2.73531       -0.09768
C         -3.42520        2.81634        0.13349
N         -3.84825        1.80028        1.09701
C         -3.56318        0.45581        0.59656
C         -2.07072        0.25192        0.29815
C         -5.27027        1.94426        1.40772
C         -1.58620        1.09906       -2.17493
C         -1.38969        2.38096       -3.02336
C         -0.64027        0.02437       -2.75822
C         -3.00459        0.59030       -2.54012
H          1.30697       -0.32234       -1.04227
H          0.31307       -0.81370        0.34017
H          1.80657        0.07333        0.58330
H          0.16974        1.64396        0.95019
H          1.35047        2.11379       -1.80737
H          0.65833        3.38217       -0.77154
H          2.05129        2.45681       -0.23511
H         -1.61696        3.54510       -0.76808
H         -1.45475        2.99472        0.86525
H         -3.97756        2.75046       -0.80749
H         -3.64062        3.81189        0.54312
H         -3.84317       -0.27865        1.36337
H         -4.18330        0.22379       -0.27282
H         -1.93117       -0.74159       -0.14334
H         -1.57815        0.21151        1.28042
H         -5.90325        1.81360        0.52248
H         -5.57594        1.21054        2.16192
H         -5.47297        2.93330        1.83347
H         -0.42735        2.86251       -2.85015
H         -1.43526        2.15247       -4.09575
H         -2.17875        3.11625       -2.83308
H         -0.67702       -0.90289       -2.17846
H         -0.92104       -0.23780       -3.78649
H          0.39130        0.37631       -2.82134
H         -3.20188       -0.40178       -2.12283
H         -3.79193        1.27667       -2.23000
H         -3.11536        0.48470       -3.62760

--Link1--
%chk=JID_4755.chk
%mem=8GB
%nprocshared=4
# B3LYP/6-311++G(d,p) empiricaldispersion=gd3bj scf=xqc pop=npa geom=check

CID_67962217_JID_4755_Energie_neutraal

0 1

--Link1--
%chk=JID_4755.chk
%mem=8GB
%nprocshared=4
# B3LYP/6-311++G(d,p) empiricaldispersion=gd3bj scf=xqc pop=npa geom=check

CID_67962217_JID_4755_Energie_kation

1 2

--Link1--
%chk=JID_4755.chk
%mem=8GB
%nprocshared=4
# B3LYP/6-311++G(d,p) empiricaldispersion=gd3bj scf=xqc pop=npa geom=check

CID_67962217_JID_4755_Energie_anion

-1 2
