%chk=JID_5417.chk
%mem=8GB
%nprocshared=4
# opt freq B3LYP/6-31G(d) empiricaldispersion=gd3bj scf=xqc

CID_103468496_JID_5417_neutraal

0 1
C          0.90246        0.00564        0.02131
S         -0.47438        0.91215       -0.72133
C          0.33853        2.51043       -1.06200
C          0.01403        3.58433       -0.02444
C          0.78339        3.48102        1.29391
N          2.19389        3.79797        1.07440
C          2.95280        3.95150        2.26193
C          4.33038        4.24892        2.10782
C          5.12683        4.31054        3.25094
C          4.53201        4.19616        4.50529
C          3.16418        3.97909        4.56321
N          2.36919        3.84970        3.47386
C          5.30241        4.29615        5.70275
N          5.92937        4.38084        6.67552
N          4.92723        4.26358        0.82431
H          0.61547       -1.04306        0.13747
H          1.14392        0.40408        1.00844
H          1.78647        0.04966       -0.62011
H          1.41572        2.37769       -1.20004
H         -0.05775        2.84398       -2.02774
H          0.23265        4.56277       -0.47291
H         -1.06283        3.58240        0.18694
H          0.33992        4.21431        1.97985
H          0.66789        2.49115        1.74577
H          2.68042        3.08742        0.53038
H          6.19971        4.45912        3.16275
H          2.64386        3.88779        5.51426
H          5.76907        4.83080        0.78420
H          4.23744        4.57615        0.13804

--Link1--
%chk=JID_5417.chk
%mem=8GB
%nprocshared=4
# B3LYP/6-311++G(d,p) empiricaldispersion=gd3bj scf=xqc pop=npa geom=check

CID_103468496_JID_5417_Energie_neutraal

0 1

--Link1--
%chk=JID_5417.chk
%mem=8GB
%nprocshared=4
# B3LYP/6-311++G(d,p) empiricaldispersion=gd3bj scf=xqc pop=npa geom=check

CID_103468496_JID_5417_Energie_kation

1 2

--Link1--
%chk=JID_5417.chk
%mem=8GB
%nprocshared=4
# B3LYP/6-311++G(d,p) empiricaldispersion=gd3bj scf=xqc pop=npa geom=check

CID_103468496_JID_5417_Energie_anion

-1 2
