%chk=JID_8692.chk
%mem=8GB
%nprocshared=4
# opt freq B3LYP/6-31G(d) empiricaldispersion=gd3bj scf=xqc

CID_104492831_JID_8692_neutraal

0 1
C          1.06028        0.06871       -0.04056
C          0.35570        1.32230        0.45785
C          1.22978        2.58496        0.36529
C          2.44808        2.51400        1.30313
C          3.28390        3.78542        1.25586
C          2.40629        4.99248        1.49585
O          2.70454        5.82734        2.34680
C          1.21262        5.12155        0.55435
C          0.38366        3.83543        0.68496
C          0.35692        6.38157        0.81401
N          0.48219        7.47802       -0.16288
C         -0.02664        7.17945       -1.49951
C          1.18738        7.05627       -2.39840
C          2.20890        8.00181       -1.77440
C          1.83898        8.02169       -0.28440
C          3.67424        7.58694       -2.03636
C          3.97521        7.46499       -3.53285
C          4.65992        8.57131       -1.39903
H          1.43255        0.20535       -1.06072
H          0.36219       -0.77478       -0.04630
H          1.90071       -0.20614        0.60292
H         -0.54996        1.46522       -0.14449
H          0.02563        1.16508        1.49187
H          1.59195        2.67572       -0.66812
H          3.09129        1.66885        1.03597
H          2.10605        2.34509        2.33231
H          3.76923        3.90312        0.28066
H          4.06721        3.74934        2.02003
H          1.63081        5.14945       -0.45527
H         -0.46848        3.88094       -0.00475
H         -0.02549        3.75454        1.70087
H         -0.70568        6.10655        0.84782
H          0.55909        6.79657        1.80862
H         -0.63796        8.02831       -1.82923
H         -0.66428        6.29002       -1.54697
H          1.55338        6.02439       -2.41210
H          0.95230        7.33640       -3.43065
H          2.03712        9.00646       -2.18628
H          2.56840        7.46795        0.31179
H          1.85020        9.05226        0.08894
H          3.84705        6.60149       -1.58274
H          3.78896        8.41023       -4.05307
H          5.02276        7.18865       -3.69547
H          3.36122        6.68998       -4.00213
H          4.53041        8.62493       -0.31378
H          5.69312        8.25923       -1.58675
H          4.53156        9.57944       -1.80681

--Link1--
%chk=JID_8692.chk
%mem=8GB
%nprocshared=4
# B3LYP/6-311++G(d,p) empiricaldispersion=gd3bj scf=xqc pop=npa geom=check

CID_104492831_JID_8692_Energie_neutraal

0 1

--Link1--
%chk=JID_8692.chk
%mem=8GB
%nprocshared=4
# B3LYP/6-311++G(d,p) empiricaldispersion=gd3bj scf=xqc pop=npa geom=check

CID_104492831_JID_8692_Energie_kation

1 2

--Link1--
%chk=JID_8692.chk
%mem=8GB
%nprocshared=4
# B3LYP/6-311++G(d,p) empiricaldispersion=gd3bj scf=xqc pop=npa geom=check

CID_104492831_JID_8692_Energie_anion

-1 2
