%chk=JID_5262.chk
%mem=8GB
%nprocshared=4
# opt freq B3LYP/6-31G(d) empiricaldispersion=gd3bj scf=xqc

CID_119378366_JID_5262_neutraal

0 1
C          1.04639        0.06219       -0.06309
C          1.06527        0.68891       -1.45486
C          1.68818       -0.29208       -2.47753
O          0.95012       -0.92976       -3.23797
N          3.06542       -0.46775       -2.49069
C          3.65601       -1.41667       -3.43410
C          4.63938       -0.71881       -4.37284
C          5.67577        0.09497       -3.59196
C          5.02951        1.05137       -2.57555
C          4.03893        0.27629       -1.68041
N          4.33947        2.15909       -3.25261
N         -0.30342        0.97775       -1.89074
C         -1.04007        2.10726       -1.71210
O         -2.18076        2.17804       -2.16402
C         -0.40968        3.25402       -0.97166
H          0.46660       -0.86838       -0.06284
H          0.58628        0.73419        0.66806
H          2.05130       -0.18389        0.29095
H          1.62079        1.62943       -1.46181
H          4.17423       -2.18140       -2.84346
H          2.89024       -1.92929       -4.02432
H          4.09051       -0.05814       -5.05454
H          5.14829       -1.46386       -4.99472
H          6.31565        0.64778       -4.29028
H          6.33349       -0.59899       -3.05227
H          5.81315        1.48445       -1.94372
H          3.55548        0.96511       -0.98592
H          4.58042       -0.45997       -1.07394
H          4.97710        2.60761       -3.91102
H          3.57567        1.78643       -3.81972
H         -0.75968        0.25456       -2.44270
H         -0.02942        2.92691       -0.00177
H          0.39834        3.68174       -1.57077
H         -1.16243        4.02878       -0.79737

--Link1--
%chk=JID_5262.chk
%mem=8GB
%nprocshared=4
# B3LYP/6-311++G(d,p) empiricaldispersion=gd3bj scf=xqc pop=npa geom=check

CID_119378366_JID_5262_Energie_neutraal

0 1

--Link1--
%chk=JID_5262.chk
%mem=8GB
%nprocshared=4
# B3LYP/6-311++G(d,p) empiricaldispersion=gd3bj scf=xqc pop=npa geom=check

CID_119378366_JID_5262_Energie_kation

1 2

--Link1--
%chk=JID_5262.chk
%mem=8GB
%nprocshared=4
# B3LYP/6-311++G(d,p) empiricaldispersion=gd3bj scf=xqc pop=npa geom=check

CID_119378366_JID_5262_Energie_anion

-1 2
