%chk=JID_4577.chk
%mem=8GB
%nprocshared=4
# opt freq B3LYP/6-31G(d) empiricaldispersion=gd3bj scf=xqc

CID_20205639_JID_4577_neutraal

0 1
C          1.05367       -0.05241       -0.06612
C          0.54696        0.10616        1.36233
C          1.42013        0.76137        2.46244
C          2.29657       -0.24702        3.27260
C          3.44081       -0.84076        2.44137
C          4.40944        0.33845        2.29271
C          3.67580        1.48310        3.02020
C          3.07042        0.70167        4.19226
C          2.40978        1.96224        2.22305
C          2.75117        2.35182        0.78279
C          1.84580        3.24542        2.88606
C         -0.81014        0.78103        1.31813
O         -1.86966        0.27835        1.65598
O         -0.77235        2.04738        0.86611
H          1.02729        0.88217       -0.63270
H          0.39885       -0.74349       -0.61193
H          2.06044       -0.46715       -0.11683
H          0.33035       -0.91336        1.71486
H          0.68945        1.11420        3.20962
H          1.70668       -1.00057        3.80050
H          3.12251       -1.25413        1.48537
H          3.93217       -1.65102        2.99368
H          4.66231        0.54933        1.25216
H          5.35076        0.10789        2.80714
H          4.34462        2.29621        3.31433
H          3.82177        0.19064        4.80507
H          2.42814        1.29388        4.84927
H          1.88138        2.77214        0.26752
H          3.53144        3.12264        0.76947
H          3.12685        1.52098        0.18484
H          1.59258        3.10191        3.94077
H          2.57497        4.06255        2.83811
H          0.93570        3.58100        2.37730
H         -1.70705        2.33987        0.90416

--Link1--
%chk=JID_4577.chk
%mem=8GB
%nprocshared=4
# B3LYP/6-311++G(d,p) empiricaldispersion=gd3bj scf=xqc pop=npa geom=check

CID_20205639_JID_4577_Energie_neutraal

0 1

--Link1--
%chk=JID_4577.chk
%mem=8GB
%nprocshared=4
# B3LYP/6-311++G(d,p) empiricaldispersion=gd3bj scf=xqc pop=npa geom=check

CID_20205639_JID_4577_Energie_kation

1 2

--Link1--
%chk=JID_4577.chk
%mem=8GB
%nprocshared=4
# B3LYP/6-311++G(d,p) empiricaldispersion=gd3bj scf=xqc pop=npa geom=check

CID_20205639_JID_4577_Energie_anion

-1 2
