%chk=JID_6187.chk
%mem=8GB
%nprocshared=4
# opt freq B3LYP/6-31G(d) empiricaldispersion=gd3bj scf=xqc

CID_112513161_JID_6187_neutraal

0 1
C          1.03682        0.06985       -0.06136
C          0.38895        0.39506        1.28818
C          0.95270        1.71455        1.82260
C         -1.14757        0.48496        1.19435
N         -1.74152       -0.80609        0.85367
C         -3.20331       -0.78042        0.78834
C         -3.81153        0.05305       -0.34626
C         -3.38834       -0.35844       -1.76261
C         -3.85829       -1.74355       -2.14786
C         -2.95935       -2.82485       -2.14097
C         -3.38211       -4.12559       -2.43465
C         -4.69914       -4.32389       -2.85144
C         -5.60730       -3.26465       -2.86706
C         -5.19205       -1.98456       -2.50429
N         -2.44724       -5.16475       -2.53133
O         -3.94073        0.58109       -2.69065
H          0.74596        0.79770       -0.82645
H          0.75431       -0.92671       -0.41386
H          2.12917        0.08506        0.02019
H          0.65814       -0.39636        1.99989
H          0.71935        2.54793        1.15115
H          0.53496        1.94536        2.80830
H          2.04138        1.65858        1.92822
H         -1.54407        0.81722        2.16152
H         -1.41235        1.24304        0.44848
H         -1.35078       -1.17118       -0.01035
H         -3.55240       -1.81584        0.70392
H         -3.60019       -0.41983        1.74559
H         -4.90589        0.00301       -0.26359
H         -3.57476        1.11398       -0.19574
H         -2.30021       -0.29286       -1.87627
H         -1.91382       -2.65308       -1.89955
H         -5.03136       -5.30852       -3.16823
H         -6.63421       -3.43372       -3.17887
H         -5.90491       -1.16280       -2.53165
H         -2.85962       -6.08812       -2.44128
H         -1.64277       -5.04540       -1.92408
H         -3.50582        1.43388       -2.52654

--Link1--
%chk=JID_6187.chk
%mem=8GB
%nprocshared=4
# B3LYP/6-311++G(d,p) empiricaldispersion=gd3bj scf=xqc pop=npa geom=check

CID_112513161_JID_6187_Energie_neutraal

0 1

--Link1--
%chk=JID_6187.chk
%mem=8GB
%nprocshared=4
# B3LYP/6-311++G(d,p) empiricaldispersion=gd3bj scf=xqc pop=npa geom=check

CID_112513161_JID_6187_Energie_kation

1 2

--Link1--
%chk=JID_6187.chk
%mem=8GB
%nprocshared=4
# B3LYP/6-311++G(d,p) empiricaldispersion=gd3bj scf=xqc pop=npa geom=check

CID_112513161_JID_6187_Energie_anion

-1 2
