%chk=JID_5194.chk
%mem=8GB
%nprocshared=4
# opt freq B3LYP/6-31G(d) empiricaldispersion=gd3bj scf=xqc

CID_61952732_JID_5194_neutraal

0 1
O       0.0025  0.3734  0.1131
O       -2.2337 -0.7947 1.6938
O       -3.8805 -1.4056 0.2725
N       -3.2801 0.4650  -1.5541
C       2.3351  0.8983  0.4796
C       1.3209  0.0941  -0.3514
C       3.7741  0.5207  0.1015
C       1.5737  -1.4107 -0.2447
C       4.0137  -0.9830 0.2099
C       3.0057  -1.7735 -0.6174
C       2.1211  2.4053  0.3158
C       -0.9685 0.0887  -0.8828
C       -2.3856 0.4216  -0.3867
C       -2.4698 1.7789  0.3191
C       -2.9285 -0.6785 0.5318
H       2.1771  0.6663  1.5420
H       1.4204  0.4045  -1.4012
H       4.4819  1.0460  0.7539
H       3.9874  0.8463  -0.9248
H       0.8944  -1.9750 -0.8915
H       1.3567  -1.7480 0.7774
H       3.9439  -1.2886 1.2611
H       5.0303  -1.2189 -0.1244
H       3.1688  -1.5726 -1.6834
H       3.1663  -2.8469 -0.4661
H       2.2374  2.7112  -0.7294
H       2.8456  2.9666  0.9154
H       1.1196  2.7003  0.6456
H       -0.7419 0.7001  -1.7667
H       -0.9266 -0.9651 -1.1787
H       -2.1369 2.5906  -0.3381
H       -1.8489 1.8065  1.2216
H       -3.4956 2.0009  0.6376
H       -4.2385 0.6447  -1.2573
H       -3.2830 -0.4381 -2.0268
H       -2.5921 -1.5077 2.2641

--Link1--
%chk=JID_5194.chk
%mem=8GB
%nprocshared=4
# B3LYP/6-311++G(d,p) empiricaldispersion=gd3bj scf=xqc pop=npa geom=check

CID_61952732_JID_5194_Energie_neutraal

0 1

--Link1--
%chk=JID_5194.chk
%mem=8GB
%nprocshared=4
# B3LYP/6-311++G(d,p) empiricaldispersion=gd3bj scf=xqc pop=npa geom=check

CID_61952732_JID_5194_Energie_kation

1 2

--Link1--
%chk=JID_5194.chk
%mem=8GB
%nprocshared=4
# B3LYP/6-311++G(d,p) empiricaldispersion=gd3bj scf=xqc pop=npa geom=check

CID_61952732_JID_5194_Energie_anion

-1 2
