%chk=JID_9295.chk
%mem=8GB
%nprocshared=4
# opt freq B3LYP/6-31G(d) empiricaldispersion=gd3bj scf=xqc

CID_65876549_JID_9295_neutraal

0 1
C         -2.48100        0.63200       -0.02500
C         -1.11229        0.07545        0.06315
N         -0.19526        0.64666        0.84937
N          0.90546       -0.11125        0.68428
C          0.74786       -1.09776       -0.25849
C         -0.58362       -1.03667       -0.62205
C          1.81714       -2.04315       -0.69623
C          2.47930       -1.80120       -2.07551
C          3.33390       -0.50901       -2.17819
C          2.82728        0.14266       -3.49137
C          1.32925       -0.11032       -3.35126
C          1.49849       -1.63384       -3.28539
C          2.24607       -1.91863       -4.61803
C          3.24680       -0.74427       -4.69134
C          3.07283       -0.12539       -6.07600
C          1.67882       -0.50122       -6.54766
C          1.38969       -1.84341       -5.88921
O          3.32914       -2.94643       -2.25831
C          2.06769        0.17483        1.49267
H         -2.83465        0.96298        0.95692
H         -2.49895        1.48901       -0.70572
H         -3.18584       -0.11708       -0.39993
H         -1.09440       -1.68299       -1.32217
H          2.60845       -2.10531        0.06148
H          1.37788       -3.05172       -0.70347
H          3.13487        0.17343       -1.34736
H          4.41130       -0.70113       -2.20950
H          3.11785        1.19113       -3.58603
H          0.72703        0.23687       -4.18921
H          0.92021        0.35296       -2.45249
H          0.57403       -2.20745       -3.18936
H          2.74444       -2.89302       -4.60155
H          4.28459       -1.07560       -4.56961
H          3.23388        0.95688       -6.08212
H          3.80729       -0.56973       -6.75932
H          0.94833        0.25456       -6.24517
H          1.62502       -0.56761       -7.63926
H          0.32194       -1.98513       -5.69452
H          1.70019       -2.64389       -6.57241
H          4.02176       -2.73003       -2.90430
H          2.81712        0.65964        0.86504
H          1.78433        0.84111        2.31233
H          2.45026       -0.75993        1.90829

--Link1--
%chk=JID_9295.chk
%mem=8GB
%nprocshared=4
# B3LYP/6-311++G(d,p) empiricaldispersion=gd3bj scf=xqc pop=npa geom=check

CID_65876549_JID_9295_Energie_neutraal

0 1

--Link1--
%chk=JID_9295.chk
%mem=8GB
%nprocshared=4
# B3LYP/6-311++G(d,p) empiricaldispersion=gd3bj scf=xqc pop=npa geom=check

CID_65876549_JID_9295_Energie_kation

1 2

--Link1--
%chk=JID_9295.chk
%mem=8GB
%nprocshared=4
# B3LYP/6-311++G(d,p) empiricaldispersion=gd3bj scf=xqc pop=npa geom=check

CID_65876549_JID_9295_Energie_anion

-1 2
