%chk=JID_7091.chk
%mem=8GB
%nprocshared=4
# opt freq B3LYP/6-31G(d) empiricaldispersion=gd3bj scf=xqc

CID_63030895_JID_7091_neutraal

0 1
C         -2.78600        0.49700       -0.00900
C         -1.56997       -0.29467       -0.33621
C         -1.30260       -1.61126        0.00069
S          0.27621       -2.03139       -0.50902
C          0.46348       -0.47071       -1.19071
N         -0.55657        0.33627       -1.04332
N          1.59888       -0.10697       -1.80855
C         -2.09881       -2.56138        0.74239
O         -1.68037       -3.12655        1.75275
N         -3.39359       -2.78780        0.29263
C         -3.86269       -2.65898       -1.07182
C         -5.37585       -2.76606       -0.96453
C         -5.64060       -3.50000        0.35764
C         -4.28842       -3.64262        1.04493
C         -6.60032       -2.75852        1.25059
O         -7.61956       -3.22430        1.73427
O         -6.24263       -1.48839        1.51432
H         -2.50610        1.51366        0.28580
H         -3.44191        0.56544       -0.88184
H         -3.34979        0.05678        0.81860
H          1.72690        0.89350       -1.91167
H          2.44411       -0.60544       -1.55878
H         -3.45211       -3.50084       -1.64175
H         -3.54118       -1.73680       -1.55607
H         -5.82474       -1.76610       -0.97645
H         -5.79085       -3.30900       -1.82033
H         -6.07383       -4.48883        0.16626
H         -4.27872       -3.36692        2.10483
H         -3.91698       -4.67057        0.95488
H         -6.94253       -1.15888        2.11764

--Link1--
%chk=JID_7091.chk
%mem=8GB
%nprocshared=4
# B3LYP/6-311++G(d,p) empiricaldispersion=gd3bj scf=xqc pop=npa geom=check

CID_63030895_JID_7091_Energie_neutraal

0 1

--Link1--
%chk=JID_7091.chk
%mem=8GB
%nprocshared=4
# B3LYP/6-311++G(d,p) empiricaldispersion=gd3bj scf=xqc pop=npa geom=check

CID_63030895_JID_7091_Energie_kation

1 2

--Link1--
%chk=JID_7091.chk
%mem=8GB
%nprocshared=4
# B3LYP/6-311++G(d,p) empiricaldispersion=gd3bj scf=xqc pop=npa geom=check

CID_63030895_JID_7091_Energie_anion

-1 2
