%chk=JID_2441.chk
%mem=8GB
%nprocshared=4
# opt freq B3LYP/6-31G(d) empiricaldispersion=gd3bj scf=xqc

CID_104166568_JID_2441_neutraal

0 1
C          1.05924       -0.04995       -0.06322
C          1.34349        0.96170       -1.17328
C          1.93120        0.31658       -2.46101
N          1.00427       -0.57231       -3.20603
C          0.45618        0.18334       -4.34876
C          1.57540       -1.90576       -3.59589
C          2.81843       -1.80124       -4.50727
C          1.97632       -2.69382       -2.31939
C          0.50345       -2.78774       -4.34636
N         -0.78659       -2.87361       -3.64451
O          0.26885        1.87051       -1.44835
C         -1.04352        1.33104       -1.38570
H          0.28599       -0.76838       -0.35205
H          0.70470        0.46058        0.83853
H          1.96339       -0.61090        0.19377
H          2.14252        1.61002       -0.79021
H          2.28627        1.12330       -3.11762
H          2.84152       -0.20993       -2.15842
H          1.21471        0.40232       -5.10748
H         -0.37443       -0.33925       -4.83024
H          0.04029        1.14251       -4.02184
H          3.62441       -1.22421       -4.04274
H          3.22211       -2.79731       -4.72534
H          2.58271       -1.33538       -5.46941
H          2.23515       -3.73064       -2.56622
H          2.85119       -2.27004       -1.81725
H          1.15880       -2.72902       -1.59131
H          0.31860       -2.38746       -5.34995
H          0.88471       -3.80529       -4.49637
H         -0.66244       -3.42214       -2.79497
H         -0.98811       -1.92968       -3.30048
H         -1.13957        0.40041       -1.94861
H         -1.33737        1.16955       -0.34452
H         -1.73159        2.06414       -1.81608

--Link1--
%chk=JID_2441.chk
%mem=8GB
%nprocshared=4
# B3LYP/6-311++G(d,p) empiricaldispersion=gd3bj scf=xqc pop=npa geom=check

CID_104166568_JID_2441_Energie_neutraal

0 1

--Link1--
%chk=JID_2441.chk
%mem=8GB
%nprocshared=4
# B3LYP/6-311++G(d,p) empiricaldispersion=gd3bj scf=xqc pop=npa geom=check

CID_104166568_JID_2441_Energie_kation

1 2

--Link1--
%chk=JID_2441.chk
%mem=8GB
%nprocshared=4
# B3LYP/6-311++G(d,p) empiricaldispersion=gd3bj scf=xqc pop=npa geom=check

CID_104166568_JID_2441_Energie_anion

-1 2
