%chk=JID_7502.chk
%mem=8GB
%nprocshared=4
# opt freq B3LYP/6-31G(d) empiricaldispersion=gd3bj scf=xqc

CID_113581294_JID_7502_neutraal

0 1
C          1.03773        0.06388        0.06705
C         -0.05388        0.34016       -0.95826
C          0.28199       -0.17696       -2.36320
C         -0.32074       -1.55096       -2.86344
C         -1.86040       -1.40069       -3.01766
C         -2.69324       -1.83072       -1.80807
C         -2.12547       -3.02834       -1.05958
N         -0.72837       -2.80920       -0.70845
C          0.10565       -2.69002       -1.90755
C          0.31864       -1.81752       -4.27215
O          1.02040       -0.93855       -4.79249
N          0.13242       -3.01797       -4.96112
C         -0.95617       -3.98154       -4.76371
C         -0.48846       -5.42927       -4.94012
C          0.38524       -5.58945       -6.14331
C          0.94714       -4.52656       -6.73656
C          0.80821       -3.10820       -6.26059
H          1.98648        0.51502       -0.24139
H          1.20182       -1.00527        0.21634
H          0.76127        0.49743        1.03367
H         -1.00758       -0.03435       -0.59079
H         -0.16494        1.43065       -1.01908
H         -0.04306        0.59993       -3.07112
H          1.37618       -0.20788       -2.46383
H         -2.11477       -0.35943       -3.25786
H         -2.22916       -1.94893       -3.88870
H         -2.79888       -0.98724       -1.11723
H         -3.71342       -2.06087       -2.13940
H         -2.70240       -3.17543       -0.13964
H         -2.23825       -3.94598       -1.64776
H         -0.39063       -3.58497       -0.13865
H          0.14027       -3.66697       -2.39624
H          1.14248       -2.52219       -1.58997
H         -1.42261       -3.88677       -3.78725
H         -1.72953       -3.74126       -5.50507
H          0.07573       -5.75173       -4.05712
H         -1.36397       -6.08207       -5.02671
H          0.56078       -6.59051       -6.52604
H          1.57216       -4.67591       -7.61358
H          0.22810       -2.52720       -6.98676
H          1.80826       -2.66584       -6.18830

--Link1--
%chk=JID_7502.chk
%mem=8GB
%nprocshared=4
# B3LYP/6-311++G(d,p) empiricaldispersion=gd3bj scf=xqc pop=npa geom=check

CID_113581294_JID_7502_Energie_neutraal

0 1

--Link1--
%chk=JID_7502.chk
%mem=8GB
%nprocshared=4
# B3LYP/6-311++G(d,p) empiricaldispersion=gd3bj scf=xqc pop=npa geom=check

CID_113581294_JID_7502_Energie_kation

1 2

--Link1--
%chk=JID_7502.chk
%mem=8GB
%nprocshared=4
# B3LYP/6-311++G(d,p) empiricaldispersion=gd3bj scf=xqc pop=npa geom=check

CID_113581294_JID_7502_Energie_anion

-1 2
