%chk=JID_8444.chk
%mem=8GB
%nprocshared=4
# opt freq B3LYP/6-31G(d) empiricaldispersion=gd3bj scf=xqc

CID_108871066_JID_8444_neutraal

0 1
C          0.94556        0.07613       -0.03522
C          1.06917        0.22526        1.47517
C          1.64368        1.58649        1.91254
N          0.95468        2.74350        1.34994
C         -0.30052        3.18879        1.50933
O         -0.81356        3.83144        0.59426
N         -1.02847        2.93043        2.60151
C         -0.61908        2.74266        3.97483
C          0.35214        3.78425        4.53061
O         -1.77907        2.56474        4.79780
C         -2.66298        3.56329        5.08169
C         -3.59664        3.23034        6.06979
C         -4.57896        4.14025        6.46386
C         -4.63324        5.38871        5.86241
C         -3.72112        5.73677        4.87284
C         -2.73686        4.82036        4.48117
O         -5.60631        6.25087        6.26985
O         -0.20066       -0.01585        2.07646
H          0.20252        0.76669       -0.44784
H          0.60089       -0.93276       -0.28729
H          1.90487        0.24983       -0.53174
H          1.73872       -0.55769        1.84859
H          1.65335        1.66479        2.99919
H          2.68320        1.66472        1.57412
H          1.30163        3.04336        0.44583
H         -1.97496        3.26699        2.49883
H         -0.11983        1.77372        4.02505
H         -0.01987        4.80662        4.43297
H          0.52981        3.60696        5.59668
H          1.31464        3.75216        4.01209
H         -3.55952        2.24989        6.53909
H         -5.29740        3.87209        7.23278
H         -3.75931        6.70921        4.39140
H         -2.05511        5.12867        3.69619
H         -5.53102        7.07123        5.75559
H         -0.79901        0.70443        1.80339

--Link1--
%chk=JID_8444.chk
%mem=8GB
%nprocshared=4
# B3LYP/6-311++G(d,p) empiricaldispersion=gd3bj scf=xqc pop=npa geom=check

CID_108871066_JID_8444_Energie_neutraal

0 1

--Link1--
%chk=JID_8444.chk
%mem=8GB
%nprocshared=4
# B3LYP/6-311++G(d,p) empiricaldispersion=gd3bj scf=xqc pop=npa geom=check

CID_108871066_JID_8444_Energie_kation

1 2

--Link1--
%chk=JID_8444.chk
%mem=8GB
%nprocshared=4
# B3LYP/6-311++G(d,p) empiricaldispersion=gd3bj scf=xqc pop=npa geom=check

CID_108871066_JID_8444_Energie_anion

-1 2
