%chk=JID_8635.chk
%mem=8GB
%nprocshared=4
# opt freq B3LYP/6-31G(d) empiricaldispersion=gd3bj scf=xqc

CID_65903023_JID_8635_neutraal

0 1
C          1.09134       -0.00443        0.04046
C          0.43137       -1.23598        0.52565
C         -0.73694       -1.42618        1.14770
C         -0.89235       -2.87667        1.35757
O         -1.82360       -3.38017        1.95989
N          0.17436       -3.48635        0.77664
C          1.06451       -2.55525        0.35652
O          2.19582       -2.71342       -0.06730
C          0.41229       -4.91547        0.81550
C         -0.06638       -5.73435       -0.41189
C         -1.54950       -5.51233       -0.77120
C         -1.81044       -4.33854       -1.71294
C         -0.93168       -4.39217       -2.95407
C          0.54575       -4.49767       -2.59692
C          0.82486       -5.69788       -1.68513
C          2.32735       -5.84847       -1.42047
O          2.56010       -6.98792       -0.60172
C         -1.77826       -0.46987        1.58734
H          0.48208        0.88608        0.21922
H          1.27625       -0.06890       -1.03666
H          2.05100        0.14135        0.54650
H          1.47863       -5.08077        0.99843
H         -0.11060       -5.30617        1.69835
H         -0.01124       -6.77514       -0.05581
H         -1.91473       -6.42188       -1.26767
H         -2.15471       -5.40665        0.13603
H         -1.64975       -3.38678       -1.20065
H         -2.86434       -4.34648       -2.01504
H         -1.09957       -3.49646       -3.56307
H         -1.22099       -5.25265       -3.56973
H          0.87418       -3.56661       -2.12918
H          1.12502       -4.59576       -3.52341
H          0.53447       -6.59316       -2.25739
H          2.86457       -5.99372       -2.36410
H          2.75039       -4.97243       -0.92590
H          3.52314       -7.04824       -0.47483
H         -1.51709        0.56335        1.34163
H         -2.73420       -0.69594        1.10439
H         -1.91746       -0.52855        2.67162

--Link1--
%chk=JID_8635.chk
%mem=8GB
%nprocshared=4
# B3LYP/6-311++G(d,p) empiricaldispersion=gd3bj scf=xqc pop=npa geom=check

CID_65903023_JID_8635_Energie_neutraal

0 1

--Link1--
%chk=JID_8635.chk
%mem=8GB
%nprocshared=4
# B3LYP/6-311++G(d,p) empiricaldispersion=gd3bj scf=xqc pop=npa geom=check

CID_65903023_JID_8635_Energie_kation

1 2

--Link1--
%chk=JID_8635.chk
%mem=8GB
%nprocshared=4
# B3LYP/6-311++G(d,p) empiricaldispersion=gd3bj scf=xqc pop=npa geom=check

CID_65903023_JID_8635_Energie_anion

-1 2
