%chk=JID_6974.chk
%mem=8GB
%nprocshared=4
# opt freq B3LYP/6-31G(d) empiricaldispersion=gd3bj scf=xqc

CID_142450537_JID_6974_neutraal

0 1
C          1.05757       -0.07133        0.03996
C          0.26598       -1.29407        0.44329
N         -0.94927       -1.17075        0.87932
C          0.90034       -2.64365        0.33972
C          0.13385       -3.77823        0.64587
C          0.69193       -5.05572        0.55909
C          2.02362       -5.19881        0.18474
C          2.79145       -4.08374       -0.14597
C          2.23347       -2.80479       -0.05994
O          2.53793       -6.45939        0.06503
C          3.43953       -6.75079        1.13947
C          4.27202       -7.97422        0.75464
C          5.14704       -7.72872       -0.47439
C          6.25084       -6.73830       -0.18616
O          6.20647       -5.55863       -0.51373
N          7.30371       -7.23306        0.52409
H          0.43991        0.82936        0.10094
H          1.40568       -0.17354       -0.99174
H          1.91224        0.05309        0.71091
H         -1.23984       -0.18762        0.89369
H         -0.90635       -3.67115        0.94689
H          0.08856       -5.93032        0.78282
H          3.82059       -4.20619       -0.47658
H          2.86027       -1.95623       -0.31505
H          4.09841       -5.90585        1.37362
H          2.85040       -6.98391        2.03485
H          4.88845       -8.27361        1.60988
H          3.59502       -8.80658        0.52722
H          5.60557       -8.67272       -0.79286
H          4.56046       -7.36424       -1.32471
H          7.44675       -8.22350        0.66354
H          8.08370       -6.60877        0.68648

--Link1--
%chk=JID_6974.chk
%mem=8GB
%nprocshared=4
# B3LYP/6-311++G(d,p) empiricaldispersion=gd3bj scf=xqc pop=npa geom=check

CID_142450537_JID_6974_Energie_neutraal

0 1

--Link1--
%chk=JID_6974.chk
%mem=8GB
%nprocshared=4
# B3LYP/6-311++G(d,p) empiricaldispersion=gd3bj scf=xqc pop=npa geom=check

CID_142450537_JID_6974_Energie_kation

1 2

--Link1--
%chk=JID_6974.chk
%mem=8GB
%nprocshared=4
# B3LYP/6-311++G(d,p) empiricaldispersion=gd3bj scf=xqc pop=npa geom=check

CID_142450537_JID_6974_Energie_anion

-1 2
