%chk=JID_6384.chk
%mem=8GB
%nprocshared=4
# opt freq B3LYP/6-31G(d) empiricaldispersion=gd3bj scf=xqc

CID_145361123_JID_6384_neutraal

0 1
C          1.02769       -0.04695       -0.08384
C          0.65523        0.69440       -1.36438
C         -0.47764        1.74054       -1.21613
N         -0.03657        3.08499       -0.78358
C          1.21022        3.52212       -1.44052
C          2.28619        2.43294       -1.38833
O          1.82820        1.22499       -2.00618
C         -0.12459        3.35929        0.58282
N         -0.10743        2.34568        1.47761
N         -0.16691        2.56492        2.83801
C         -0.26546        3.82248        3.29599
C         -0.32524        4.90130        2.43597
C         -0.27851        4.67323        1.05090
C         -0.41059        5.85733        0.13302
C         -0.31625        3.98009        4.71709
N         -0.35819        4.15452        5.86534
H          0.14361       -0.47949        0.39426
H          1.54338        0.58922        0.63869
H          1.72423       -0.86049       -0.31643
H          0.27529       -0.07436       -2.04945
H         -0.90650        1.88619       -2.21695
H         -1.30105        1.35514       -0.60157
H          1.61092        4.44778       -1.01581
H          0.96877        3.73090       -2.49008
H          2.60950        2.23365       -0.36162
H          3.16800        2.76661       -1.94505
H         -0.42648        5.90971        2.82754
H         -1.05553        6.62197        0.58060
H          0.57077        6.30265       -0.05529
H         -0.87299        5.58290       -0.82021

--Link1--
%chk=JID_6384.chk
%mem=8GB
%nprocshared=4
# B3LYP/6-311++G(d,p) empiricaldispersion=gd3bj scf=xqc pop=npa geom=check

CID_145361123_JID_6384_Energie_neutraal

0 1

--Link1--
%chk=JID_6384.chk
%mem=8GB
%nprocshared=4
# B3LYP/6-311++G(d,p) empiricaldispersion=gd3bj scf=xqc pop=npa geom=check

CID_145361123_JID_6384_Energie_kation

1 2

--Link1--
%chk=JID_6384.chk
%mem=8GB
%nprocshared=4
# B3LYP/6-311++G(d,p) empiricaldispersion=gd3bj scf=xqc pop=npa geom=check

CID_145361123_JID_6384_Energie_anion

-1 2
