%chk=JID_10001.chk
%mem=8GB
%nprocshared=4
# opt freq B3LYP/6-31G(d) empiricaldispersion=gd3bj scf=xqc

CID_106917980_JID_10001_neutraal

0 1
C          1.02676       -0.09455        0.01853
C          0.80862       -0.24863        1.51687
C          1.42006        0.80382        2.46873
N          1.29618        2.23306        2.13808
C          1.29925        3.04497        3.35981
C          2.24380        2.76350        1.13863
C          3.71568        2.85119        1.51472
C          4.32335        4.03143        1.99625
C          5.67146        3.99203        2.39549
C          6.45216        2.84729        2.22694
C          5.87002        1.70468        1.68205
C          4.51561        1.70261        1.32817
N          6.67529        0.49195        1.49456
O          6.09776       -0.52567        1.08601
O          7.88571        0.55796        1.75243
N          3.59286        5.18945        2.29917
C         -0.63649       -0.60757        1.85637
O         -0.90235       -1.72010        2.32390
N         -1.67753        0.23790        1.64436
C         -1.67430        1.64804        1.34621
H          0.55740        0.79867       -0.39623
H          0.59602       -0.94874       -0.51716
H          2.09435       -0.06961       -0.21953
H          1.35474       -1.17300        1.76867
H          0.93655        0.63089        3.44156
H          2.47039        0.55053        2.64954
H          2.22960        2.94443        3.92909
H          1.13174        4.10176        3.12733
H          0.47151        2.75077        4.01584
H          2.17391        2.19499        0.20742
H          1.88621        3.75257        0.82756
H          6.13034        4.87172        2.84318
H          7.49611        2.86558        2.53131
H          4.06497        0.80277        0.91318
H          2.76477        5.34091        1.73456
H          4.15722        6.03218        2.36098
H         -2.55160       -0.15895        1.96860
H         -2.65805        1.91173        0.94912
H         -1.50747        2.19931        2.27411
H         -0.91480        1.90324        0.61118

--Link1--
%chk=JID_10001.chk
%mem=8GB
%nprocshared=4
# B3LYP/6-311++G(d,p) empiricaldispersion=gd3bj scf=xqc pop=npa geom=check

CID_106917980_JID_10001_Energie_neutraal

0 1

--Link1--
%chk=JID_10001.chk
%mem=8GB
%nprocshared=4
# B3LYP/6-311++G(d,p) empiricaldispersion=gd3bj scf=xqc pop=npa geom=check

CID_106917980_JID_10001_Energie_kation

1 2

--Link1--
%chk=JID_10001.chk
%mem=8GB
%nprocshared=4
# B3LYP/6-311++G(d,p) empiricaldispersion=gd3bj scf=xqc pop=npa geom=check

CID_106917980_JID_10001_Energie_anion

-1 2
