%chk=JID_8811.chk
%mem=8GB
%nprocshared=4
# opt freq B3LYP/6-31G(d) empiricaldispersion=gd3bj scf=xqc

CID_62334991_JID_8811_neutraal

0 1
C          0.98546       -0.08233        0.05486
C          1.17356        1.41045       -0.16068
C          2.36627        1.80213       -1.06791
N          2.04840        1.77547       -2.51245
C          2.78790        2.81687       -3.23215
C          2.20316        0.46326       -3.16531
C          3.60479       -0.17941       -3.15851
C          3.68131       -1.42981       -2.28209
O          2.83610       -2.44213       -2.84150
C          1.98954       -3.04302       -1.95318
C          0.68112       -3.24335       -2.39490
C         -0.27109       -3.80255       -1.54039
C          0.09261       -4.18606       -0.24604
C          1.41792       -4.02948        0.17733
C          2.36939       -3.46806       -0.68035
C         -0.88825       -4.73546        0.64354
N         -1.68103       -5.17697        1.36728
O         -0.03398        1.94963       -0.70675
H          0.62995       -0.58181       -0.84688
H          0.20828       -0.25134        0.80925
H          1.90555       -0.55293        0.40909
H          1.31861        1.87846        0.81992
H          2.58895        2.84392       -0.79661
H          3.26803        1.23467       -0.81499
H          3.87282        2.70944       -3.13360
H          2.53305        2.81163       -4.29792
H          2.50819        3.80838       -2.85792
H          1.45504       -0.22160       -2.76178
H          1.89788        0.58270       -4.21426
H          3.85098       -0.46124       -4.19028
H          4.37487        0.52905       -2.83694
H          4.70642       -1.81644       -2.28424
H          3.42325       -1.16450       -1.25208
H          0.39497       -2.93350       -3.39717
H         -1.29483       -3.92482       -1.88892
H          1.71633       -4.33881        1.17742
H          3.39599       -3.36564       -0.34092
H          0.13199        1.99919       -1.67189

--Link1--
%chk=JID_8811.chk
%mem=8GB
%nprocshared=4
# B3LYP/6-311++G(d,p) empiricaldispersion=gd3bj scf=xqc pop=npa geom=check

CID_62334991_JID_8811_Energie_neutraal

0 1

--Link1--
%chk=JID_8811.chk
%mem=8GB
%nprocshared=4
# B3LYP/6-311++G(d,p) empiricaldispersion=gd3bj scf=xqc pop=npa geom=check

CID_62334991_JID_8811_Energie_kation

1 2

--Link1--
%chk=JID_8811.chk
%mem=8GB
%nprocshared=4
# B3LYP/6-311++G(d,p) empiricaldispersion=gd3bj scf=xqc pop=npa geom=check

CID_62334991_JID_8811_Energie_anion

-1 2
