%chk=JID_9222.chk
%mem=8GB
%nprocshared=4
# opt freq B3LYP/6-31G(d) empiricaldispersion=gd3bj scf=xqc

CID_101408439_JID_9222_neutraal

0 1
C          1.09127       -0.03538        0.02047
C          0.95540       -1.10073        1.09692
C          1.30274       -0.60109        2.50155
C          0.47127        0.58253        3.01562
C         -1.05193        0.33934        3.09319
C         -1.32214       -0.76282        4.11837
O         -1.30750       -0.62514        5.33273
O         -1.51805       -1.94566        3.46741
C         -1.76957       -3.17126        4.20146
C         -0.62562       -3.51147        5.16407
C         -3.12074       -3.10173        4.91908
C         -1.83469       -4.26254        3.12209
C         -1.79275        1.67962        3.31100
C         -1.91117        2.53132        2.04887
C         -1.29728        3.91882        2.21620
C         -1.84996        4.61543        3.45382
C         -1.44982        3.87138        4.72299
C         -1.65664        2.38987        4.65283
C         -2.97641        1.78340        4.26873
H          0.35467        0.76206        0.14821
H          0.93090       -0.47804       -0.96788
H          2.09083        0.41040        0.03324
H         -0.05781       -1.51509        1.07444
H          1.62999       -1.93025        0.85206
H          1.22055       -1.43969        3.20256
H          2.35929       -0.30402        2.51481
H          0.84398        0.84524        4.01482
H          0.68168        1.45575        2.38769
H         -1.41632       -0.03596        2.12847
H         -0.59170       -2.83116        6.02005
H         -0.73157       -4.52575        5.56435
H          0.34416       -3.43540        4.66025
H         -3.91508       -2.80885        4.22310
H         -3.38661       -4.06650        5.36410
H         -3.11750       -2.35568        5.71969
H         -2.61546       -4.03857        2.38602
H         -0.89140       -4.31416        2.56531
H         -2.03659       -5.24924        3.55201
H         -1.43023        2.03893        1.19653
H         -2.96960        2.62876        1.77557
H         -1.51292        4.52004        1.32576
H         -0.20621        3.83875        2.29423
H         -2.94236        4.68092        3.38338
H         -1.47332        5.64352        3.50215
H         -1.99766        4.27977        5.57966
H         -0.38520        4.05488        4.91521
H         -1.12055        1.89851        5.45957
H         -3.79813        2.44965        4.02592
H         -3.30998        0.91228        4.82175

--Link1--
%chk=JID_9222.chk
%mem=8GB
%nprocshared=4
# B3LYP/6-311++G(d,p) empiricaldispersion=gd3bj scf=xqc pop=npa geom=check

CID_101408439_JID_9222_Energie_neutraal

0 1

--Link1--
%chk=JID_9222.chk
%mem=8GB
%nprocshared=4
# B3LYP/6-311++G(d,p) empiricaldispersion=gd3bj scf=xqc pop=npa geom=check

CID_101408439_JID_9222_Energie_kation

1 2

--Link1--
%chk=JID_9222.chk
%mem=8GB
%nprocshared=4
# B3LYP/6-311++G(d,p) empiricaldispersion=gd3bj scf=xqc pop=npa geom=check

CID_101408439_JID_9222_Energie_anion

-1 2
