%chk=JID_9952.chk
%mem=8GB
%nprocshared=4
# opt freq B3LYP/6-31G(d) empiricaldispersion=gd3bj scf=xqc

CID_107155325_JID_9952_neutraal

0 1
C          0.91887        0.02788        0.05139
C          0.37300       -0.59307        1.33732
C          1.04485        0.05640        2.55048
C         -1.15452       -0.45096        1.45253
C         -1.97574       -1.09222        0.32436
C         -1.72548       -2.59202        0.09020
N         -2.00298       -3.38869        1.28052
C         -2.49695       -4.66764        1.35358
O         -2.62042       -5.17222        2.46621
C         -2.82297       -5.33971        0.12211
C         -1.91513       -5.73305       -0.85721
C         -2.62135       -6.36765       -1.90018
C         -3.94712       -6.36469       -1.54092
N         -4.06730       -5.75987       -0.31068
C         -5.37500       -5.61214        0.29005
C         -5.52723       -6.33546        1.65435
C         -6.39235       -5.14573        2.11240
C         -5.66328       -4.29576        1.05360
O         -3.36356       -0.89777        0.62849
H          0.63637        1.08286       -0.03108
H          0.54489       -0.49558       -0.83369
H          2.01236       -0.03168        0.02535
H          0.63860       -1.65665        1.34787
H          0.82897        1.12925        2.59833
H          0.69433       -0.40234        3.48115
H          2.13199       -0.06876        2.50682
H         -1.48656       -0.85766        2.41706
H         -1.41943        0.61469        1.50086
H         -1.78927       -0.55525       -0.61165
H         -2.38149       -2.92729       -0.71909
H         -0.69056       -2.78647       -0.20586
H         -1.65025       -3.07333        2.17583
H         -0.84437       -5.57695       -0.80931
H         -2.21056       -6.78758       -2.80947
H         -4.81455       -6.75486       -2.05759
H         -6.18972       -5.89627       -0.39194
H         -6.05350       -7.29443        1.61239
H         -4.62179       -6.47858        2.24773
H         -6.25691       -4.83154        3.15022
H         -7.46220       -5.27566        1.91311
H         -4.82082       -3.73843        1.46478
H         -6.30146       -3.58534        0.51854
H         -3.60281       -1.56658        1.29657

--Link1--
%chk=JID_9952.chk
%mem=8GB
%nprocshared=4
# B3LYP/6-311++G(d,p) empiricaldispersion=gd3bj scf=xqc pop=npa geom=check

CID_107155325_JID_9952_Energie_neutraal

0 1

--Link1--
%chk=JID_9952.chk
%mem=8GB
%nprocshared=4
# B3LYP/6-311++G(d,p) empiricaldispersion=gd3bj scf=xqc pop=npa geom=check

CID_107155325_JID_9952_Energie_kation

1 2

--Link1--
%chk=JID_9952.chk
%mem=8GB
%nprocshared=4
# B3LYP/6-311++G(d,p) empiricaldispersion=gd3bj scf=xqc pop=npa geom=check

CID_107155325_JID_9952_Energie_anion

-1 2
