%chk=JID_10157.chk
%mem=8GB
%nprocshared=4
# opt freq B3LYP/6-31G(d) empiricaldispersion=gd3bj scf=xqc

CID_63168755_JID_10157_neutraal

0 1
C          0.91305       -0.04824       -0.01064
C          0.31140       -1.45844        0.10363
C         -0.13454       -1.72318        1.55166
C         -0.94581       -1.51321       -0.79015
N          1.19029       -2.52522       -0.40185
C          2.62019       -2.47602       -0.11526
C          3.00262       -2.87777        1.27903
C          2.96807       -4.20365        1.68621
N          3.29271       -4.63169        2.92856
C          3.63658       -3.71473        3.85677
C          3.72343       -2.36501        3.52164
C          3.41755       -1.94684        2.22671
N          3.93903       -4.19749        5.12007
C          3.71661       -3.38345        6.31571
C          5.10294       -3.18915        6.91914
C          5.77798       -4.53072        6.61002
C          5.28051       -4.80863        5.16724
N          7.22245       -4.57723        6.90574
C          7.75084       -5.92907        6.70677
C          8.03295       -3.61301        6.16393
H          0.16682        0.71590        0.23764
H          1.25967        0.15537       -1.03043
H          1.75532        0.09926        0.67124
H         -0.92356       -1.02276        1.85078
H         -0.53809       -2.73563        1.66919
H          0.68169       -1.60157        2.26693
H         -0.69698       -1.32965       -1.84235
H         -1.44214       -2.48940       -0.72896
H         -1.67887       -0.75511       -0.48965
H          0.81237       -3.43803       -0.15228
H          3.11376       -3.17505       -0.80359
H          3.05282       -1.50347       -0.37535
H          2.66960       -4.99504        1.00378
H          4.04972       -1.62769        4.24514
H          3.49312       -0.89288        1.97524
H          3.08994       -3.96023        7.00702
H          3.20361       -2.43219        6.14308
H          5.59491       -2.35048        6.41539
H          5.05896       -2.97326        7.99090
H          5.29550       -5.26983        7.26814
H          5.95233       -4.35031        4.43141
H          5.22761       -5.88428        4.96636
H          7.71245       -6.24030        5.65693
H          8.79239       -5.98647        7.04292
H          7.19210       -6.65699        7.30542
H          7.99739       -3.77052        5.08135
H          7.73283       -2.58341        6.37877
H          9.08205       -3.68289        6.47524

--Link1--
%chk=JID_10157.chk
%mem=8GB
%nprocshared=4
# B3LYP/6-311++G(d,p) empiricaldispersion=gd3bj scf=xqc pop=npa geom=check

CID_63168755_JID_10157_Energie_neutraal

0 1

--Link1--
%chk=JID_10157.chk
%mem=8GB
%nprocshared=4
# B3LYP/6-311++G(d,p) empiricaldispersion=gd3bj scf=xqc pop=npa geom=check

CID_63168755_JID_10157_Energie_kation

1 2

--Link1--
%chk=JID_10157.chk
%mem=8GB
%nprocshared=4
# B3LYP/6-311++G(d,p) empiricaldispersion=gd3bj scf=xqc pop=npa geom=check

CID_63168755_JID_10157_Energie_anion

-1 2
