%chk=JID_10177.chk
%mem=8GB
%nprocshared=4
# opt=(cartesian,calcfc) freq B3LYP/6-31G(d) empiricaldispersion=gd3bj scf=xqc

CID_65260843_JID_10177_neutraal

0 1
6	-3.807295	 -1.624930	 -0.330177
6	-2.341608	 -1.179104	 -0.443045
6	-2.231274	 0.303673	 -0.602738
6	-1.707310	 1.108703	 -1.575317
6	-1.903877	 2.462830	 -1.133745
6	-2.535372	 2.381913	 0.074533
8	-2.750030	 1.072533	 0.405760
7	-1.615486	 -1.694872	 0.723578
6	-0.266602	 -1.708424	 0.980373
8	0.156373	 -2.112685	 2.058048
6	0.686247	 -1.243086	 -0.119430
6	1.788346	 -2.293125	 -0.343187
7	2.766361	 -1.861535	 -1.335528
6	3.470027	 -0.643380	 -0.912745
6	2.608989	 0.399126	 -0.209670
6	3.130776	 1.670763	 0.040695
6	2.377588	 2.646409	 0.710046
6	1.110375	 2.343870	 1.160753
6	0.577448	 1.085197	 0.906796
6	1.306290	 0.110457	 0.218056
1	-4.280378	 -1.182815	 0.553834
1	-3.865049	 -2.713811	 -0.251916
1	-4.369616	 -1.304140	 -1.211006
1	-1.914474	 -1.623596	 -1.345938
1	-1.209525	 0.784549	 -2.482474
1	-1.586971	 3.365562	 -1.627572
1	-2.882513	 3.105299	 0.789126
1	-2.173873	 -1.957238	 1.527498
1	0.137888	 -1.135975	 -1.059366
1	1.349575	 -3.243111	 -0.670105
1	2.298415	 -2.482807	 0.605509
1	2.279581	 -1.666754	 -2.205802
1	4.295601	 -0.935406	 -0.249255
1	3.935169	 -0.207812	 -1.800982
1	4.163312	 1.903146	 -0.298054
1	2.846523	 3.635965	 0.861453
1	0.512724	 3.081130	 1.662099
1	-0.419742	 0.868524	 1.248966

--Link1--
%chk=JID_10177.chk
%mem=8GB
%nprocshared=4
# B3LYP/6-311++G(d,p) empiricaldispersion=gd3bj scf=xqc pop=npa geom=check

CID_65260843_JID_10177_Energie_neutraal

0 1

--Link1--
%chk=JID_10177.chk
%mem=8GB
%nprocshared=4
# B3LYP/6-311++G(d,p) empiricaldispersion=gd3bj scf=xqc pop=npa geom=check

CID_65260843_JID_10177_Energie_kation

1 2

--Link1--
%chk=JID_10177.chk
%mem=8GB
%nprocshared=4
# B3LYP/6-311++G(d,p) empiricaldispersion=gd3bj scf=xqc pop=npa geom=check

CID_65260843_JID_10177_Energie_anion

-1 2
