%chk=JID_7811.chk
%mem=8GB
%nprocshared=4
# opt freq B3LYP/6-31G(d) empiricaldispersion=gd3bj scf=xqc

CID_83203179_JID_7811_neutraal

0 1
C          1.07326       -0.04822        0.04803
C          0.74151        1.09940       -0.89409
C          0.95741        0.75605       -2.38013
C          0.10006       -0.41665       -2.88241
C         -1.37350       -0.20165       -2.68601
O         -1.98640        0.83710       -2.86472
O         -2.01662       -1.32433       -2.31489
N          0.74782        1.94266       -3.20673
C          1.46480        3.04000       -3.48090
O          0.89633        3.96295       -4.06715
N          2.75642        3.19077       -3.16575
C          3.78125        2.30063       -2.65234
C          4.34296        1.36332       -3.72627
O          5.60130        1.83269       -4.24977
C          5.54740        2.90113       -5.07280
O          4.55328        3.53139       -5.38634
N          6.78752        3.20184       -5.51487
H          0.38030       -0.88514       -0.07722
H          0.99986        0.28733        1.08757
H          2.09229       -0.41114       -0.11883
H         -0.29158        1.42328       -0.71993
H          1.36791        1.95802       -0.62269
H          1.99068        0.43725       -2.52304
H          0.26615       -0.58320       -3.95341
H          0.39848       -1.33523       -2.36450
H         -2.95809       -1.05466       -2.25648
H         -0.22338        2.12398       -3.45493
H          3.11529        4.01706       -3.63740
H          4.57408        2.94044       -2.24893
H          3.37294        1.73815       -1.81362
H          4.56809        0.39633       -3.26349
H          3.64035        1.17419       -4.54638
H          7.57130        2.62336       -5.25768
H          6.89841        3.95894       -6.17254

--Link1--
%chk=JID_7811.chk
%mem=8GB
%nprocshared=4
# B3LYP/6-311++G(d,p) empiricaldispersion=gd3bj scf=xqc pop=npa geom=check

CID_83203179_JID_7811_Energie_neutraal

0 1

--Link1--
%chk=JID_7811.chk
%mem=8GB
%nprocshared=4
# B3LYP/6-311++G(d,p) empiricaldispersion=gd3bj scf=xqc pop=npa geom=check

CID_83203179_JID_7811_Energie_kation

1 2

--Link1--
%chk=JID_7811.chk
%mem=8GB
%nprocshared=4
# B3LYP/6-311++G(d,p) empiricaldispersion=gd3bj scf=xqc pop=npa geom=check

CID_83203179_JID_7811_Energie_anion

-1 2
