%chk=JID_6919.chk
%mem=8GB
%nprocshared=4
# opt freq B3LYP/6-31G(d) empiricaldispersion=gd3bj scf=xqc

CID_114475910_JID_6919_neutraal

0 1
C          1.06215       -0.07413        0.02532
C          0.92231        1.05532       -0.98707
C          1.50599        0.70838       -2.36060
N          0.79428       -0.42240       -2.95160
C          1.22792       -0.74260       -4.32332
C          2.71469       -1.14187       -4.46099
C          3.18345       -2.28745       -3.54641
C          3.57632       -3.55800       -4.27155
C          4.57354       -3.58746       -5.17156
C          2.82614       -4.80365       -3.89541
C          0.33346       -1.78890       -4.93622
C         -0.48944       -2.79715       -4.44908
C         -1.05991       -3.41777       -5.59741
C         -0.56060       -2.75687       -6.69142
O          0.27610       -1.76617       -6.30291
C         -0.74133       -3.17235       -3.03510
H          0.48579       -0.95541       -0.27286
H          0.69267        0.25053        1.00329
H          2.10995       -0.36954        0.14018
H         -0.13593        1.32665       -1.08449
H          1.44074        1.94081       -0.60029
H          1.42314        1.58926       -3.00791
H          2.56938        0.47808       -2.23655
H         -0.20096       -0.19935       -2.99002
H          1.08374        0.16510       -4.92749
H          2.92367       -1.37047       -5.51432
H          3.33038       -0.26062       -4.23694
H          4.06710       -1.94555       -2.98958
H          2.43906       -2.51359       -2.77601
H          4.85705       -4.50588       -5.67645
H          5.13101       -2.69230       -5.42957
H          2.90910       -4.98626       -2.81899
H          1.76848       -4.70707       -4.15273
H          3.21276       -5.68882       -4.41153
H         -1.75140       -4.24832       -5.61990
H         -0.69707       -2.86311       -7.75820
H         -1.26058       -4.13443       -2.97248
H          0.19415       -3.26681       -2.47681
H         -1.36851       -2.42093       -2.54526

--Link1--
%chk=JID_6919.chk
%mem=8GB
%nprocshared=4
# B3LYP/6-311++G(d,p) empiricaldispersion=gd3bj scf=xqc pop=npa geom=check

CID_114475910_JID_6919_Energie_neutraal

0 1

--Link1--
%chk=JID_6919.chk
%mem=8GB
%nprocshared=4
# B3LYP/6-311++G(d,p) empiricaldispersion=gd3bj scf=xqc pop=npa geom=check

CID_114475910_JID_6919_Energie_kation

1 2

--Link1--
%chk=JID_6919.chk
%mem=8GB
%nprocshared=4
# B3LYP/6-311++G(d,p) empiricaldispersion=gd3bj scf=xqc pop=npa geom=check

CID_114475910_JID_6919_Energie_anion

-1 2
