%chk=JID_9010.chk
%mem=8GB
%nprocshared=4
# opt freq B3LYP/6-31G(d) empiricaldispersion=gd3bj scf=xqc

CID_82044886_JID_9010_neutraal

0 1
C         -0.72000        1.26100        0.22400
C         -1.63749        0.10138        0.60218
C         -1.04142       -0.94913        1.55195
C          0.48672       -1.05058        1.63147
N          1.16520        0.21470        1.29202
C          0.71789        0.80505        0.02872
C          2.56339        0.08770        1.41226
C          3.37991       -0.43735        0.40461
C          4.76260       -0.55533        0.59121
C          5.36594       -0.10964        1.76774
C          4.54821        0.34902        2.80025
C          3.16556        0.46098        2.61889
N          6.72824       -0.33906        1.99401
C         -1.69666       -1.00726        2.92740
O         -2.30952       -2.02369        3.27307
N         -1.63196        0.01767        3.81973
C         -1.00674        1.28784        3.70991
C         -1.82897        2.53646        3.54348
C         -1.13412        2.27359        4.84414
H         -1.08864        1.73401       -0.69368
H         -0.75453        2.03003        1.00045
H         -2.58506        0.49422        0.98981
H         -1.89572       -0.41391       -0.33385
H         -1.35655       -1.91392        1.11902
H          0.79259       -1.38651        2.63118
H          0.81288       -1.82865        0.92612
H          0.77963        0.08787       -0.79940
H          1.32844        1.67939       -0.22975
H          2.95019       -0.79139       -0.52723
H          5.36321       -1.00312       -0.19559
H          4.97694        0.62713        3.75867
H          2.55146        0.84282        3.42992
H          7.13080        0.27347        2.69645
H          7.28301       -0.36453        1.14442
H         -2.11193       -0.20064        4.68639
H         -0.02425        1.26150        3.25157
H         -1.43536        3.32606        2.91421
H         -2.90799        2.44139        3.51226
H         -1.74434        2.01383        5.70079
H         -0.26506        2.87469        5.08718

--Link1--
%chk=JID_9010.chk
%mem=8GB
%nprocshared=4
# B3LYP/6-311++G(d,p) empiricaldispersion=gd3bj scf=xqc pop=npa geom=check

CID_82044886_JID_9010_Energie_neutraal

0 1

--Link1--
%chk=JID_9010.chk
%mem=8GB
%nprocshared=4
# B3LYP/6-311++G(d,p) empiricaldispersion=gd3bj scf=xqc pop=npa geom=check

CID_82044886_JID_9010_Energie_kation

1 2

--Link1--
%chk=JID_9010.chk
%mem=8GB
%nprocshared=4
# B3LYP/6-311++G(d,p) empiricaldispersion=gd3bj scf=xqc pop=npa geom=check

CID_82044886_JID_9010_Energie_anion

-1 2
