%chk=JID_5350.chk
%mem=8GB
%nprocshared=4
# opt freq B3LYP/6-31G(d) empiricaldispersion=gd3bj scf=xqc

CID_65303329_JID_5350_neutraal

0 1
C          2.62500       -0.32100        0.00300
C          1.19110        0.01623       -0.24425
C          0.19048       -0.90856       -0.50980
S         -1.31943       -0.15258       -0.80497
C         -0.67320        1.39960       -0.52577
C          0.67292        1.35252       -0.24521
C          0.31189       -2.40566       -0.59862
C          0.08476       -3.11090        0.74399
C         -1.37826       -3.22884        1.20066
C         -2.33893       -3.88164        0.19744
N         -1.96192       -5.26212       -0.10184
C         -2.69021       -5.81260       -1.24683
C         -2.16561       -5.35632       -2.62670
C         -0.70925       -5.76458       -2.86783
C         -3.04924       -5.93968       -3.73277
H          3.08401       -0.71913       -0.90762
H          3.19310        0.56315        0.30999
H          2.71535       -1.06913        0.79698
H         -1.30515        2.27414       -0.59030
H          1.26428        2.23981       -0.05411
H         -0.34299       -2.80360       -1.38012
H          1.32937       -2.64497       -0.93490
H          0.51351       -4.11813        0.67787
H          0.65119       -2.60042        1.53359
H         -1.39939       -3.80014        2.13809
H         -1.76070       -2.23291        1.45252
H         -3.34483       -3.87958        0.63436
H         -2.38980       -3.26944       -0.70700
H         -0.96144       -5.34613       -0.25479
H         -2.61209       -6.90529       -1.18610
H         -3.75934       -5.58424       -1.15170
H         -2.22911       -4.26427       -2.70057
H         -0.57659       -6.84595       -2.75608
H         -0.39189       -5.48865       -3.87938
H         -0.02989       -5.26430       -2.17144
H         -4.09026       -5.62477       -3.60567
H         -2.71597       -5.59625       -4.71804
H         -3.02128       -7.03460       -3.72849

--Link1--
%chk=JID_5350.chk
%mem=8GB
%nprocshared=4
# B3LYP/6-311++G(d,p) empiricaldispersion=gd3bj scf=xqc pop=npa geom=check

CID_65303329_JID_5350_Energie_neutraal

0 1

--Link1--
%chk=JID_5350.chk
%mem=8GB
%nprocshared=4
# B3LYP/6-311++G(d,p) empiricaldispersion=gd3bj scf=xqc pop=npa geom=check

CID_65303329_JID_5350_Energie_kation

1 2

--Link1--
%chk=JID_5350.chk
%mem=8GB
%nprocshared=4
# B3LYP/6-311++G(d,p) empiricaldispersion=gd3bj scf=xqc pop=npa geom=check

CID_65303329_JID_5350_Energie_anion

-1 2
