%chk=JID_5359.chk
%mem=8GB
%nprocshared=4
# opt freq B3LYP/6-31G(d) empiricaldispersion=gd3bj scf=xqc

CID_66274130_JID_5359_neutraal

0 1
C         -2.53900       -0.00300       -0.12500
C         -1.05046       -0.17065        0.18486
C         -0.25000        0.85959       -0.63675
C          1.25276        0.73026       -0.40443
N          1.73527       -0.61065       -0.72470
C          1.03885       -1.61894        0.08736
C         -0.51008       -1.60218       -0.10185
N         -1.10306       -2.73459        0.65059
C         -1.24475       -2.50503        2.08898
C         -1.62842       -3.74246        2.90663
C         -3.07129       -4.16136        2.66850
O         -3.29185       -5.01400        1.55611
C         -2.49763       -4.80247        0.38724
C         -2.29190       -3.31791        0.00261
C         -3.22417       -5.54379       -0.73572
H         -2.83645        1.04864       -0.04750
H         -2.77588       -0.34528       -1.13779
H         -3.16018       -0.55725        0.58279
H         -0.89447        0.07195        1.24424
H         -0.46751        0.73423       -1.70580
H         -0.56523        1.87513       -0.36746
H          1.50115        0.97905        0.63443
H          1.78136        1.45489       -1.03356
H          1.55916       -0.80564       -1.71045
H          1.31109       -1.46923        1.13872
H          1.42884       -2.60433       -0.19600
H         -0.65989       -1.79474       -1.17444
H         -0.28957       -2.15334        2.49484
H         -1.97617       -1.71326        2.28906
H         -1.52115       -3.47669        3.96585
H         -0.93325       -4.56668        2.71084
H         -3.73063       -3.29045        2.57767
H         -3.42395       -4.71712        3.54459
H         -1.52971       -5.29846        0.53232
H         -3.19356       -2.73810        0.22396
H         -2.14436       -3.28295       -1.08361
H         -2.65472       -5.51356       -1.66976
H         -3.38432       -6.59267       -0.46242
H         -4.21418       -5.10876       -0.91288

--Link1--
%chk=JID_5359.chk
%mem=8GB
%nprocshared=4
# B3LYP/6-311++G(d,p) empiricaldispersion=gd3bj scf=xqc pop=npa geom=check

CID_66274130_JID_5359_Energie_neutraal

0 1

--Link1--
%chk=JID_5359.chk
%mem=8GB
%nprocshared=4
# B3LYP/6-311++G(d,p) empiricaldispersion=gd3bj scf=xqc pop=npa geom=check

CID_66274130_JID_5359_Energie_kation

1 2

--Link1--
%chk=JID_5359.chk
%mem=8GB
%nprocshared=4
# B3LYP/6-311++G(d,p) empiricaldispersion=gd3bj scf=xqc pop=npa geom=check

CID_66274130_JID_5359_Energie_anion

-1 2
