%chk=JID_4414.chk
%mem=8GB
%nprocshared=4
# opt freq B3LYP/6-31G(d) empiricaldispersion=gd3bj scf=xqc

CID_82722589_JID_4414_neutraal

0 1
C         -2.59100       -0.31800       -0.00700
C         -1.27277       -0.14659       -0.66325
C         -0.48696       -1.10652       -1.28526
S          0.86452       -0.29293       -1.96037
N          0.39225        1.19516       -1.36891
N         -0.75034        1.14411       -0.70832
C         -0.62469       -2.52616       -1.48416
O         -0.31945       -3.09940       -2.53218
N         -1.14084       -3.29806       -0.46184
O         -0.88963       -2.84179        0.85594
C         -1.88190       -3.39668        1.73054
C         -1.59918       -2.94227        3.16359
O         -0.39873       -3.51693        3.68829
C         -0.57725       -4.82927        4.20179
H         -2.46472       -0.44327        1.07207
H         -3.21807        0.56416       -0.17316
H         -3.13023       -1.18282       -0.40420
H         -0.95933       -4.28632       -0.61057
H         -2.86916       -3.03714        1.42057
H         -1.85513       -4.48830        1.65214
H         -1.45199       -1.85703        3.17494
H         -2.44449       -3.17428        3.82113
H         -1.31092       -4.82688        5.01355
H         -0.88870       -5.52084        3.41473
H          0.38047       -5.17272        4.60233

--Link1--
%chk=JID_4414.chk
%mem=8GB
%nprocshared=4
# B3LYP/6-311++G(d,p) empiricaldispersion=gd3bj scf=xqc pop=npa geom=check

CID_82722589_JID_4414_Energie_neutraal

0 1

--Link1--
%chk=JID_4414.chk
%mem=8GB
%nprocshared=4
# B3LYP/6-311++G(d,p) empiricaldispersion=gd3bj scf=xqc pop=npa geom=check

CID_82722589_JID_4414_Energie_kation

1 2

--Link1--
%chk=JID_4414.chk
%mem=8GB
%nprocshared=4
# B3LYP/6-311++G(d,p) empiricaldispersion=gd3bj scf=xqc pop=npa geom=check

CID_82722589_JID_4414_Energie_anion

-1 2
