%chk=JID_4639.chk
%mem=8GB
%nprocshared=4
# opt freq B3LYP/6-31G(d) empiricaldispersion=gd3bj scf=xqc

CID_84719125_JID_4639_neutraal

0 1
C         -1.87400       -1.64400       -0.74400
C         -1.96535       -1.58976        0.76487
C         -1.13015       -0.57419        0.01060
C          0.36990       -0.48794        0.02667
C          1.38528       -1.42992       -0.04160
C          2.71706       -0.99593       -0.01162
C          3.03042        0.37156        0.07178
C          2.01852        1.32969        0.11660
C          0.71678        0.87286        0.08736
N         -0.44161        1.65178        0.07980
C         -1.58075        0.87175        0.00090
O         -2.73682        1.25332       -0.07157
C         -1.40399       -2.68503        1.60181
N         -0.95699       -2.11619        2.86194
H         -2.75086       -1.34691       -1.31028
H         -1.30932       -2.44557       -1.20381
H         -2.90548       -1.23642        1.18335
H          1.16512       -2.48808       -0.12832
H          3.52168       -1.72700       -0.06148
H          4.07230        0.68380        0.08930
H          2.25209        2.38677        0.16339
H         -0.47370        2.65897        0.08660
H         -2.18775       -3.42434        1.79876
H         -0.58309       -3.21453        1.11167
H         -0.56700       -2.85401        3.44522
H         -0.19470       -1.46243        2.68577

--Link1--
%chk=JID_4639.chk
%mem=8GB
%nprocshared=4
# B3LYP/6-311++G(d,p) empiricaldispersion=gd3bj scf=xqc pop=npa geom=check

CID_84719125_JID_4639_Energie_neutraal

0 1

--Link1--
%chk=JID_4639.chk
%mem=8GB
%nprocshared=4
# B3LYP/6-311++G(d,p) empiricaldispersion=gd3bj scf=xqc pop=npa geom=check

CID_84719125_JID_4639_Energie_kation

1 2

--Link1--
%chk=JID_4639.chk
%mem=8GB
%nprocshared=4
# B3LYP/6-311++G(d,p) empiricaldispersion=gd3bj scf=xqc pop=npa geom=check

CID_84719125_JID_4639_Energie_anion

-1 2
