%chk=JID_4685.chk
%mem=8GB
%nprocshared=4
# opt freq B3LYP/6-31G(d) empiricaldispersion=gd3bj scf=xqc

CID_152321874_JID_4685_neutraal

0 1
C          0.91434       -0.02605       -0.04453
C          1.02746       -1.53897       -0.15090
C          1.91679       -2.13844        0.93215
C          1.20085       -2.22875        2.26512
O          0.32306       -3.07251        2.45657
C          1.54940       -1.22110        3.33156
C          2.97136       -1.33251        3.78323
N          3.80949       -0.40239        4.05856
C          3.59628        1.04936        3.99728
C          3.49696        1.51286        2.54508
C          2.43253        1.58496        4.87426
N          2.67332        1.63149        6.33251
C          1.51306        2.21568        7.01055
C          2.97598        0.32063        6.90383
H          0.42358        0.27657        0.88416
H          0.31676        0.36320       -0.87534
H          1.90057        0.44510       -0.09387
H          0.02420       -1.97953       -0.11531
H          1.45189       -1.78476       -1.13137
H          2.19593       -3.16223        0.65508
H          2.85075       -1.57754        1.03685
H          1.29361       -0.23107        2.96449
H          0.92041       -1.42773        4.20497
H          3.32827       -2.36561        3.94763
H          4.51786        1.50181        4.38789
H          2.54592        1.23897        2.08708
H          3.58305        2.60333        2.48463
H          4.29920        1.07903        1.93861
H          2.24398        2.61805        4.55155
H          1.50858        1.03438        4.67701
H          0.61054        1.60691        6.88141
H          1.70600        2.32320        8.08373
H          1.30794        3.22227        6.62922
H          2.20870       -0.42352        6.66268
H          3.95030       -0.04246        6.56495
H          3.05313        0.38363        7.99566

--Link1--
%chk=JID_4685.chk
%mem=8GB
%nprocshared=4
# B3LYP/6-311++G(d,p) empiricaldispersion=gd3bj scf=xqc pop=npa geom=check

CID_152321874_JID_4685_Energie_neutraal

0 1

--Link1--
%chk=JID_4685.chk
%mem=8GB
%nprocshared=4
# B3LYP/6-311++G(d,p) empiricaldispersion=gd3bj scf=xqc pop=npa geom=check

CID_152321874_JID_4685_Energie_kation

1 2

--Link1--
%chk=JID_4685.chk
%mem=8GB
%nprocshared=4
# B3LYP/6-311++G(d,p) empiricaldispersion=gd3bj scf=xqc pop=npa geom=check

CID_152321874_JID_4685_Energie_anion

-1 2
