%chk=JID_2573.chk
%mem=8GB
%nprocshared=4
# opt freq B3LYP/6-31G(d) empiricaldispersion=gd3bj scf=xqc

CID_106651093_JID_2573_neutraal

0 1
C          1.07714        0.00722       -0.06322
C          1.09839        1.52853       -0.07909
C          1.66042        2.10157       -1.38823
C          0.85437        1.83402       -2.65589
C         -0.48286        2.02125       -2.70540
C         -1.49452        1.81282       -3.80657
C         -1.09217        1.25637       -5.17338
C         -0.70971       -0.22473       -5.21702
C          0.22347       -0.75912       -4.13387
C          1.61832       -0.13310       -4.08451
C          1.68694        1.37332       -3.82991
O          1.80750        3.51405       -1.24388
H          0.39255       -0.39248       -0.81613
H          0.74302       -0.35335        0.91489
H          2.07513       -0.40152       -0.25068
H          0.09639        1.92092        0.12927
H          1.71995        1.88244        0.75375
H          2.67476        1.70115       -1.49987
H         -0.96864        2.38184       -1.79701
H         -2.28948        1.17295       -3.40167
H         -1.96131        2.79152       -3.98176
H         -0.31980        1.87501       -5.63645
H         -1.95724        1.37588       -5.84112
H         -0.27684       -0.44059       -6.20194
H         -1.63696       -0.81093       -5.16558
H         -0.26346       -0.69457       -3.15498
H          0.35330       -1.83505       -4.31190
H          2.18499       -0.64455       -3.29502
H          2.14269       -0.35180       -5.02294
H          2.73968        1.64094       -3.66814
H          1.43308        1.93915       -4.72809
H          0.97476        3.92304       -1.53285

--Link1--
%chk=JID_2573.chk
%mem=8GB
%nprocshared=4
# B3LYP/6-311++G(d,p) empiricaldispersion=gd3bj scf=xqc pop=npa geom=check

CID_106651093_JID_2573_Energie_neutraal

0 1

--Link1--
%chk=JID_2573.chk
%mem=8GB
%nprocshared=4
# B3LYP/6-311++G(d,p) empiricaldispersion=gd3bj scf=xqc pop=npa geom=check

CID_106651093_JID_2573_Energie_kation

1 2

--Link1--
%chk=JID_2573.chk
%mem=8GB
%nprocshared=4
# B3LYP/6-311++G(d,p) empiricaldispersion=gd3bj scf=xqc pop=npa geom=check

CID_106651093_JID_2573_Energie_anion

-1 2
