%chk=JID_9671.chk
%mem=8GB
%nprocshared=4
# opt freq B3LYP/6-31G(d) empiricaldispersion=gd3bj scf=xqc

CID_51296320_JID_9671_neutraal

0 1
C          2.49200        0.00400       -0.01400
C          0.99787       -0.06915       -0.12607
C          0.29192       -1.10946        0.48492
C         -1.09666       -1.20139        0.35187
C         -1.81262       -0.26033       -0.40458
C         -1.09309        0.77594       -1.02318
C          0.29542        0.86693       -0.89041
C         -3.32111       -0.33281       -0.58702
C         -3.77593       -1.18986       -1.74800
C         -2.90461       -1.58819       -2.91922
C         -3.35109       -2.63050       -1.92988
N         -4.00300       -0.81253        0.60440
C         -4.13281       -0.14449        1.80045
O         -4.29054       -0.82864        2.81247
C         -4.10135        1.30443        1.80390
C         -4.80085        2.20046        1.01657
C         -4.50425        3.55622        1.34131
C         -3.60309        3.65034        2.37785
S         -3.13015        2.11291        2.95961
H          2.83231       -0.40334        0.94385
H          2.95624       -0.56444       -0.82570
H          2.83710        1.04199       -0.06598
H          0.81802       -1.85754        1.07417
H         -1.60973       -2.02064        0.84972
H         -1.61137        1.52219       -1.62205
H          0.82486        1.67635       -1.38806
H         -3.67654        0.68118       -0.79088
H         -4.81558       -0.96712       -1.97981
H         -3.35723       -1.59924       -3.90503
H         -1.85169       -1.33230       -2.93195
H         -2.59709       -3.05765       -1.28036
H         -4.10371       -3.34285       -2.25035
H         -3.99334       -1.81249        0.74720
H         -5.50340        1.89709        0.24966
H         -4.93815        4.41786        0.84875
H         -3.20684        4.54743        2.83365

--Link1--
%chk=JID_9671.chk
%mem=8GB
%nprocshared=4
# B3LYP/6-311++G(d,p) empiricaldispersion=gd3bj scf=xqc pop=npa geom=check

CID_51296320_JID_9671_Energie_neutraal

0 1

--Link1--
%chk=JID_9671.chk
%mem=8GB
%nprocshared=4
# B3LYP/6-311++G(d,p) empiricaldispersion=gd3bj scf=xqc pop=npa geom=check

CID_51296320_JID_9671_Energie_kation

1 2

--Link1--
%chk=JID_9671.chk
%mem=8GB
%nprocshared=4
# B3LYP/6-311++G(d,p) empiricaldispersion=gd3bj scf=xqc pop=npa geom=check

CID_51296320_JID_9671_Energie_anion

-1 2
