%chk=JID_9969.chk
%mem=8GB
%nprocshared=4
# opt freq B3LYP/6-31G(d) empiricaldispersion=gd3bj scf=xqc

CID_112325679_JID_9969_neutraal

0 1
C          0.92198        0.05790       -0.02366
C          0.22539        1.33574        0.45264
C          0.79007        2.59792       -0.23785
C          1.03014        2.56625       -1.75430
C         -0.21796        2.40223       -2.60652
O          1.65103        3.80141       -2.12489
C         -1.31405        1.25769        0.35784
N         -1.84863        0.21653        1.22968
C         -3.31638        0.12936        1.22516
C         -3.97626       -0.42512       -0.06204
C         -3.53788       -1.77495       -0.57951
C         -2.36455       -1.91836       -1.31727
C         -2.00743       -3.17816       -1.79122
C         -2.83320       -4.26266       -1.52985
C         -3.99129       -4.03741       -0.80890
N         -4.36084       -2.82540       -0.33930
C         -3.66363       -0.53468        2.54179
C         -4.81130       -1.49404        2.74676
C         -3.39328       -1.99152        2.83439
H          0.62988       -0.20554       -1.04466
H          0.68174       -0.79215        0.62253
H          2.01034        0.17962       -0.00026
H          0.46815        1.45071        1.51949
H          0.16661        3.46613        0.01532
H          1.76002        2.82058        0.23081
H          1.74681        1.77884       -2.00813
H         -0.99874        3.10742       -2.30219
H          0.00574        2.61584       -3.65781
H         -0.61433        1.38595       -2.55191
H          1.03570        4.52399       -1.91205
H         -1.73216        2.22498        0.66179
H         -1.62225        1.07956       -0.67280
H         -1.45812       -0.70002        1.02013
H         -3.71022        1.15025        1.33347
H         -5.06405       -0.45197        0.08421
H         -3.82712        0.29850       -0.87512
H         -1.73451       -1.06539       -1.53844
H         -1.09494       -3.30935       -2.36569
H         -2.58521       -5.25620       -1.88479
H         -4.67651       -4.84890       -0.58147
H         -3.46465        0.15376        3.36198
H         -5.37574       -1.41573        3.66964
H         -5.40712       -1.82940        1.90764
H         -3.02878       -2.63679        2.04612
H         -3.00174       -2.24184        3.81407

--Link1--
%chk=JID_9969.chk
%mem=8GB
%nprocshared=4
# B3LYP/6-311++G(d,p) empiricaldispersion=gd3bj scf=xqc pop=npa geom=check

CID_112325679_JID_9969_Energie_neutraal

0 1

--Link1--
%chk=JID_9969.chk
%mem=8GB
%nprocshared=4
# B3LYP/6-311++G(d,p) empiricaldispersion=gd3bj scf=xqc pop=npa geom=check

CID_112325679_JID_9969_Energie_kation

1 2

--Link1--
%chk=JID_9969.chk
%mem=8GB
%nprocshared=4
# B3LYP/6-311++G(d,p) empiricaldispersion=gd3bj scf=xqc pop=npa geom=check

CID_112325679_JID_9969_Energie_anion

-1 2
