%chk=JID_6109.chk
%mem=8GB
%nprocshared=4
# opt freq B3LYP/6-31G(d) empiricaldispersion=gd3bj scf=xqc

CID_80593570_JID_6109_neutraal

0 1
C          0.94709        0.02314        0.08164
C         -0.28364       -0.82852       -0.24635
C          0.01822       -1.93721       -1.27411
S          1.06702       -3.28766       -0.63152
C          0.11728       -3.64748        0.88711
C         -0.13518       -2.38629        1.71149
N         -0.90794       -1.38303        0.96977
C         -2.20539       -1.09927        1.40639
O         -2.71395       -1.67138        2.36997
C         -3.05860       -0.13076        0.60116
C         -3.67678       -0.77251       -0.66134
C         -4.55815       -0.48894        0.50775
C         -2.78064        1.36705        0.65948
N         -2.13318        1.99306        1.60197
O         -1.69518        1.16377        2.62847
N         -3.27676        2.13384       -0.36036
H          0.68734        0.81553        0.79166
H          1.33548        0.49906       -0.82516
H          1.76082       -0.55887        0.52366
H         -0.99066       -0.15170       -0.73214
H         -0.91945       -2.39120       -1.61388
H          0.51028       -1.51373       -2.15598
H          0.68321       -4.37345        1.47896
H         -0.82938       -4.11599        0.59767
H          0.80739       -1.93035        2.03384
H         -0.65767       -2.67265        2.63034
H         -3.83015       -0.20165       -1.56524
H         -3.44881       -1.81521       -0.86590
H         -4.92022       -1.32669        1.09502
H         -5.27581        0.32026        0.43170
H         -1.31653        1.79362        3.26832
H         -3.42250        1.73326       -1.27278
H         -2.91972        3.08251       -0.36220

--Link1--
%chk=JID_6109.chk
%mem=8GB
%nprocshared=4
# B3LYP/6-311++G(d,p) empiricaldispersion=gd3bj scf=xqc pop=npa geom=check

CID_80593570_JID_6109_Energie_neutraal

0 1

--Link1--
%chk=JID_6109.chk
%mem=8GB
%nprocshared=4
# B3LYP/6-311++G(d,p) empiricaldispersion=gd3bj scf=xqc pop=npa geom=check

CID_80593570_JID_6109_Energie_kation

1 2

--Link1--
%chk=JID_6109.chk
%mem=8GB
%nprocshared=4
# B3LYP/6-311++G(d,p) empiricaldispersion=gd3bj scf=xqc pop=npa geom=check

CID_80593570_JID_6109_Energie_anion

-1 2
