%chk=JID_10120.chk
%mem=8GB
%nprocshared=4
# opt freq B3LYP/6-31G(d) empiricaldispersion=gd3bj scf=xqc

CID_120327540_JID_10120_neutraal

0 1
C          0.90186        0.00437        0.01868
C          0.90589       -1.47992       -0.31282
C          1.70287       -2.33000        0.68247
N          1.11795       -2.35985        2.02611
C         -0.00651       -3.28144        2.24549
C          0.35519       -4.73841        2.51592
O         -0.42867       -5.59225        2.90691
O          1.62091       -5.07843        2.21358
C          1.68221       -1.54116        3.01016
O          2.52141       -0.68385        2.71110
C          1.08474       -1.57162        4.44883
C          1.74199       -0.57205        5.41388
C          0.91219       -0.46460        6.70079
C          0.61469       -1.83736        7.31393
C          0.05620       -2.82117        6.27756
N          0.94567       -2.88269        5.11688
C          2.08387       -3.69580        5.16051
O          3.15608       -3.36443        4.65719
C          1.94178       -5.07239        5.78728
C          2.53842       -5.12789        7.17970
H          0.38620        0.20062        0.96340
H          0.38127        0.56283       -0.76592
H          1.92181        0.39451        0.08984
H         -0.12889       -1.83387       -0.37697
H          1.34656       -1.61090       -1.30840
H          1.75560       -3.35854        0.30919
H          2.73574       -1.96634        0.72970
H         -0.62163       -2.92946        3.07562
H         -0.63566       -3.26596        1.34944
H          1.69599       -6.03106        2.42278
H          0.05748       -1.20876        4.28843
H          1.81908        0.41978        4.95339
H          2.76293       -0.88773        5.65978
H          1.43776        0.16214        7.42987
H         -0.03656        0.03792        6.47436
H          1.54465       -2.23452        7.73690
H         -0.09405       -1.72866        8.14224
H         -0.07837       -3.80213        6.73696
H         -0.92971       -2.49122        5.92941
H          0.90017       -5.40592        5.78514
H          2.47580       -5.77493        5.13526
H          1.96379       -4.52479        7.88724
H          2.54575       -6.15862        7.54769
H          3.56821       -4.75582        7.18374

--Link1--
%chk=JID_10120.chk
%mem=8GB
%nprocshared=4
# B3LYP/6-311++G(d,p) empiricaldispersion=gd3bj scf=xqc pop=npa geom=check

CID_120327540_JID_10120_Energie_neutraal

0 1

--Link1--
%chk=JID_10120.chk
%mem=8GB
%nprocshared=4
# B3LYP/6-311++G(d,p) empiricaldispersion=gd3bj scf=xqc pop=npa geom=check

CID_120327540_JID_10120_Energie_kation

1 2

--Link1--
%chk=JID_10120.chk
%mem=8GB
%nprocshared=4
# B3LYP/6-311++G(d,p) empiricaldispersion=gd3bj scf=xqc pop=npa geom=check

CID_120327540_JID_10120_Energie_anion

-1 2
