%chk=JID_4465.chk
%mem=8GB
%nprocshared=4
# opt freq B3LYP/6-31G(d) empiricaldispersion=gd3bj scf=xqc

CID_84024580_JID_4465_neutraal

0 1
C          1.00601        0.03587        0.09315
C          1.29524        1.17201       -0.89418
C          1.77981        0.63302       -2.25625
N          0.79783       -0.18810       -2.95930
C          0.08168        2.11359       -1.06757
N         -0.36200        2.69677        0.21857
C         -1.83630        2.58533        0.32052
C         -2.38579        3.76014       -0.47868
C         -1.25704        4.78852       -0.49164
C         -0.15958        4.16326        0.38198
C          1.25472        4.83468        0.31637
C          1.11092        6.33008        0.69654
C          2.18058        4.18662        1.36715
C          1.94527        4.79101       -1.05588
H          0.10770       -0.52467       -0.18542
H          0.85632        0.42411        1.10606
H          1.84624       -0.66544        0.13526
H          2.13276        1.74228       -0.48082
H          2.05109        1.47635       -2.90155
H          2.69135        0.04166       -2.10966
H          1.20807       -0.53286       -3.82716
H          0.58308       -1.01574       -2.40441
H          0.29110        2.88198       -1.81800
H         -0.72520        1.51533       -1.51236
H         -2.12437        2.68702        1.37509
H         -2.23672        1.62009       -0.00922
H         -2.62772        3.45972       -1.50450
H         -3.29483        4.16290       -0.02073
H         -0.92620        4.95915       -1.52095
H         -1.60420        5.74439       -0.08564
H         -0.47610        4.35168        1.42236
H          0.60990        6.44878        1.66398
H          2.09090        6.81553        0.77456
H          0.53363        6.88197       -0.05295
H          1.76284        4.28494        2.37575
H          2.33294        3.12154        1.17953
H          3.16793        4.66256        1.37257
H          1.29995        5.17881       -1.84967
H          2.85318        5.40690       -1.05333
H          2.26614        3.78621       -1.33263

--Link1--
%chk=JID_4465.chk
%mem=8GB
%nprocshared=4
# B3LYP/6-311++G(d,p) empiricaldispersion=gd3bj scf=xqc pop=npa geom=check

CID_84024580_JID_4465_Energie_neutraal

0 1

--Link1--
%chk=JID_4465.chk
%mem=8GB
%nprocshared=4
# B3LYP/6-311++G(d,p) empiricaldispersion=gd3bj scf=xqc pop=npa geom=check

CID_84024580_JID_4465_Energie_kation

1 2

--Link1--
%chk=JID_4465.chk
%mem=8GB
%nprocshared=4
# B3LYP/6-311++G(d,p) empiricaldispersion=gd3bj scf=xqc pop=npa geom=check

CID_84024580_JID_4465_Energie_anion

-1 2
