%chk=JID_9531.chk
%mem=8GB
%nprocshared=4
# opt freq B3LYP/6-31G(d) empiricaldispersion=gd3bj scf=xqc

CID_115157164_JID_9531_neutraal

0 1
C          0.97718        0.09150       -0.03326
C         -0.00709        0.98592        0.76211
C         -0.00534        2.35066        0.04352
C         -1.42778        0.36195        0.73832
C         -1.54777       -1.12860        1.09600
N         -1.12652       -1.44661        2.45310
C          0.52180        1.12397        2.20539
O          1.46656        0.43149        2.60398
N         -0.03782        1.94192        3.13533
C         -0.99697        3.03244        3.01297
C         -1.85221        3.32267        4.28241
C         -1.02412        3.27838        5.58257
C         -2.37734        4.77583        4.13907
C         -3.02398        2.33374        4.36518
C         -2.80910        0.96421        4.52747
C         -3.89883        0.09701        4.57081
C         -5.18251        0.60838        4.45986
C         -5.32115        1.97407        4.30519
N         -4.28088        2.83600        4.25315
H          0.60983       -0.09690       -1.04856
H          1.14270       -0.87879        0.44687
H          1.96018        0.57101       -0.11773
H         -0.03767        2.22317       -1.04530
H         -0.86931        2.96834        0.29568
H          0.89701        2.92414        0.28442
H         -2.10337        0.91950        1.39480
H         -1.83939        0.47941       -0.27377
H         -2.59998       -1.41853        0.99329
H         -0.99019       -1.74388        0.38247
H         -1.22809       -2.44900        2.60959
H         -0.12512       -1.26082        2.56501
H          0.51495        1.91498        3.98398
H         -0.38793        3.90971        2.76240
H         -1.66341        2.85385        2.16922
H         -0.16962        3.96250        5.52731
H         -1.63305        3.57467        6.44545
H         -0.63435        2.27920        5.80308
H         -2.96158        4.90387        3.21985
H         -3.01632        5.05992        4.98388
H         -1.54877        5.49311        4.10276
H         -1.80792        0.55102        4.59996
H         -3.73559       -0.97156        4.67924
H         -6.04986       -0.04016        4.48847
H         -6.30255        2.42974        4.21225

--Link1--
%chk=JID_9531.chk
%mem=8GB
%nprocshared=4
# B3LYP/6-311++G(d,p) empiricaldispersion=gd3bj scf=xqc pop=npa geom=check

CID_115157164_JID_9531_Energie_neutraal

0 1

--Link1--
%chk=JID_9531.chk
%mem=8GB
%nprocshared=4
# B3LYP/6-311++G(d,p) empiricaldispersion=gd3bj scf=xqc pop=npa geom=check

CID_115157164_JID_9531_Energie_kation

1 2

--Link1--
%chk=JID_9531.chk
%mem=8GB
%nprocshared=4
# B3LYP/6-311++G(d,p) empiricaldispersion=gd3bj scf=xqc pop=npa geom=check

CID_115157164_JID_9531_Energie_anion

-1 2
