%chk=JID_10838.chk
%mem=8GB
%nprocshared=4
# opt freq B3LYP/6-31G(d) empiricaldispersion=gd3bj scf=xqc

CID_64805020_JID_10838_neutraal

0 1
C          0.96129       -0.00915        0.09175
C          1.26142        0.59384       -1.27450
C          1.78903       -0.42013       -2.29742
N          0.77997       -1.42494       -2.59661
C          1.07514       -2.39949       -3.67850
C          2.43670       -3.12207       -3.45732
O          2.49180       -3.77301       -2.18479
C         -0.03747       -3.51612       -3.66837
O         -1.35610       -2.98833       -3.91448
C         -2.10448       -2.84141       -2.77834
C         -2.48460       -3.93068       -1.99727
C         -3.26443       -3.72108       -0.86177
C         -3.67134       -2.42771       -0.52624
C         -3.31560       -1.33726       -1.32538
C         -2.54052       -1.55252       -2.46397
O         -3.78249       -0.12779       -0.88787
C         -3.43294        1.00932       -1.66817
C          0.98125       -1.63260       -4.99538
C          2.16545       -1.04788       -5.73510
C          1.43405       -2.22771       -6.31052
H          0.12004       -0.70736        0.04956
H          0.69630        0.78271        0.79981
H          1.83351       -0.53920        0.48706
H          0.35873        1.08214       -1.66160
H          2.01468        1.38109       -1.14907
H          2.06075        0.13417       -3.20125
H          2.70119       -0.87694       -1.90018
H          0.47488       -1.91753       -1.75898
H          2.59853       -3.89287       -4.21785
H          3.28794       -2.43687       -3.51321
H          2.38527       -3.07604       -1.51442
H          0.15588       -4.22421       -4.48382
H          0.00717       -4.09731       -2.73830
H         -2.18788       -4.93846       -2.27122
H         -3.56277       -4.56167       -0.24132
H         -4.27952       -2.26719        0.36076
H         -2.23587       -0.74174       -3.11645
H         -2.34761        1.15262       -1.69397
H         -3.84769        0.93734       -2.67914
H         -3.87302        1.89012       -1.19075
H          0.05690       -1.05774       -5.03720
H          2.02667       -0.08341       -6.21320
H          3.17199       -1.20395       -5.37050
H          1.94220       -3.18374       -6.32507
H          0.80286       -2.06104       -7.17761

--Link1--
%chk=JID_10838.chk
%mem=8GB
%nprocshared=4
# B3LYP/6-311++G(d,p) empiricaldispersion=gd3bj scf=xqc pop=npa geom=check

CID_64805020_JID_10838_Energie_neutraal

0 1

--Link1--
%chk=JID_10838.chk
%mem=8GB
%nprocshared=4
# B3LYP/6-311++G(d,p) empiricaldispersion=gd3bj scf=xqc pop=npa geom=check

CID_64805020_JID_10838_Energie_kation

1 2

--Link1--
%chk=JID_10838.chk
%mem=8GB
%nprocshared=4
# B3LYP/6-311++G(d,p) empiricaldispersion=gd3bj scf=xqc pop=npa geom=check

CID_64805020_JID_10838_Energie_anion

-1 2
