%chk=JID_2294.chk
%mem=8GB
%nprocshared=4
# opt freq B3LYP/6-31G(d) empiricaldispersion=gd3bj scf=xqc

CID_135246104_JID_2294_neutraal

0 1
C          0.94114       -0.03939        0.07059
C          0.03037        1.18692       -0.03434
C         -1.18520        0.99932        0.86078
C         -1.99309        2.07280        0.99866
C         -3.11372        2.10093        0.06758
C         -2.90575        1.95397       -1.25419
C         -3.95159        2.06757       -2.26644
C         -3.32807        1.97377       -3.45299
N         -1.96608        1.83798       -3.30117
C         -1.61814        1.72004       -1.96655
C         -0.39624        1.41484       -1.48541
C         -1.53014        3.43096        1.44713
H          0.44250       -0.94876       -0.28526
H          1.25038       -0.20906        1.10817
H          1.84933        0.09712       -0.52741
H          0.61494        2.05611        0.29159
H         -1.66899        0.04567        0.62277
H         -4.09712        2.31702        0.47143
H         -5.00556        2.18873       -2.08629
H         -3.76611        1.99148       -4.44065
H         -1.37723        1.46775       -4.03282
H          0.40943        1.31668       -2.20983
H         -0.55223        3.37965        1.93775
H         -1.45274        4.13205        0.60924
H         -2.23572        3.84132        2.17764

--Link1--
%chk=JID_2294.chk
%mem=8GB
%nprocshared=4
# B3LYP/6-311++G(d,p) empiricaldispersion=gd3bj scf=xqc pop=npa geom=check

CID_135246104_JID_2294_Energie_neutraal

0 1

--Link1--
%chk=JID_2294.chk
%mem=8GB
%nprocshared=4
# B3LYP/6-311++G(d,p) empiricaldispersion=gd3bj scf=xqc pop=npa geom=check

CID_135246104_JID_2294_Energie_kation

1 2

--Link1--
%chk=JID_2294.chk
%mem=8GB
%nprocshared=4
# B3LYP/6-311++G(d,p) empiricaldispersion=gd3bj scf=xqc pop=npa geom=check

CID_135246104_JID_2294_Energie_anion

-1 2
