%chk=JID_3574.chk
%mem=8GB
%nprocshared=4
# opt freq B3LYP/6-31G(d) empiricaldispersion=gd3bj scf=xqc

CID_153475280_JID_3574_neutraal

0 1
C          1.01919        0.01279       -0.09730
C          0.23054        1.32599       -0.14668
C          0.82661        2.27146       -1.19176
C         -1.26874        1.14964       -0.37878
C         -1.77261        0.23923       -1.22865
C         -3.23882        0.07404       -1.43966
C         -3.67372       -1.30561       -1.04236
N         -4.54098       -1.38545       -0.08741
N         -4.72184       -0.12038        0.36537
C         -4.12645        0.89537       -0.51953
C         -3.34372        1.87539        0.31530
N         -2.05212        1.99843        0.36509
C         -6.03937        0.23168        0.87559
H          1.06949       -0.47508       -1.07640
H          0.57067       -0.68882        0.61439
H          2.04922        0.20034        0.22607
H          0.36230        1.79571        0.83839
H          0.75470        1.85080       -2.20104
H          0.30872        3.23698       -1.19128
H          1.88476        2.46201       -0.98226
H         -1.11312       -0.39874       -1.80814
H         -3.49553        0.22547       -2.49340
H         -3.30397       -2.18636       -1.58767
H         -4.88704        1.43330       -1.09763
H         -3.93683        2.56220        0.94273
H         -6.02864        1.21162        1.36356
H         -6.78504        0.24727        0.07355
H         -6.36264       -0.49745        1.62633

--Link1--
%chk=JID_3574.chk
%mem=8GB
%nprocshared=4
# B3LYP/6-311++G(d,p) empiricaldispersion=gd3bj scf=xqc pop=npa geom=check

CID_153475280_JID_3574_Energie_neutraal

0 1

--Link1--
%chk=JID_3574.chk
%mem=8GB
%nprocshared=4
# B3LYP/6-311++G(d,p) empiricaldispersion=gd3bj scf=xqc pop=npa geom=check

CID_153475280_JID_3574_Energie_kation

1 2

--Link1--
%chk=JID_3574.chk
%mem=8GB
%nprocshared=4
# B3LYP/6-311++G(d,p) empiricaldispersion=gd3bj scf=xqc pop=npa geom=check

CID_153475280_JID_3574_Energie_anion

-1 2
