%chk=JID_9202.chk
%mem=8GB
%nprocshared=4
# opt freq B3LYP/6-31G(d) empiricaldispersion=gd3bj scf=xqc

CID_134365835_JID_9202_neutraal

0 1
C          1.04419       -0.03119       -0.08411
C          0.36776       -0.24133        1.27099
C          0.82416        0.84601        2.24856
C         -1.17144       -0.23394        1.17122
C         -1.78524       -1.31294        0.27158
N         -1.54681       -2.66110        0.79134
C         -2.30157       -3.24873        1.82039
C         -1.68730       -3.69778        2.93027
C         -3.80604       -3.58620        1.60496
C         -4.77517       -2.78902        2.50388
C         -4.85548       -1.25914        2.33433
C         -5.64931       -0.83653        1.09680
C         -5.51727       -0.64272        3.57427
N         -4.10202       -3.49897        0.18096
C         -5.08861       -4.13281       -0.55596
C         -4.99876       -4.13789       -1.89733
C         -6.24540       -4.71170        0.15758
C         -6.86124       -6.01425       -0.30150
C         -6.07302       -5.97295        0.96957
H          0.69165        0.88682       -0.56618
H          0.85070       -0.86938       -0.76004
H          2.13087        0.04457        0.03179
H          0.70105       -1.20390        1.67618
H          0.53299        1.84269        1.89976
H          0.38214        0.68974        3.23834
H          1.91307        0.83250        2.36528
H         -1.58616       -0.33051        2.18223
H         -1.49794        0.74473        0.79582
H         -2.85464       -1.12221        0.16147
H         -1.36830       -1.25360       -0.73855
H         -0.55014       -2.80590        0.94539
H         -2.23463       -4.22453        3.70558
H         -0.62626       -3.54955        3.09738
H         -3.90284       -4.64104        1.89370
H         -5.78601       -3.20201        2.40681
H         -4.48690       -2.99866        3.54363
H         -3.84807       -0.84176        2.27157
H         -6.65708       -1.26554        1.10580
H         -5.75100        0.25371        1.05730
H         -5.16008       -1.14165        0.17018
H         -4.94416       -0.87519        4.47819
H         -5.56804        0.44799        3.48777
H         -6.53627       -1.02081        3.71087
H         -3.23625       -3.35272       -0.33998
H         -5.77053       -4.58671       -2.51210
H         -4.16160       -3.68172       -2.41281
H         -6.94317       -3.96488        0.52471
H         -7.93825       -6.11263       -0.23004
H         -6.42561       -6.55007       -1.13670
H         -5.10916       -6.46930        0.97032
H         -6.61032       -6.04305        1.90754

--Link1--
%chk=JID_9202.chk
%mem=8GB
%nprocshared=4
# B3LYP/6-311++G(d,p) empiricaldispersion=gd3bj scf=xqc pop=npa geom=check

CID_134365835_JID_9202_Energie_neutraal

0 1

--Link1--
%chk=JID_9202.chk
%mem=8GB
%nprocshared=4
# B3LYP/6-311++G(d,p) empiricaldispersion=gd3bj scf=xqc pop=npa geom=check

CID_134365835_JID_9202_Energie_kation

1 2

--Link1--
%chk=JID_9202.chk
%mem=8GB
%nprocshared=4
# B3LYP/6-311++G(d,p) empiricaldispersion=gd3bj scf=xqc pop=npa geom=check

CID_134365835_JID_9202_Energie_anion

-1 2
