%chk=JID_4915.chk
%mem=8GB
%nprocshared=4
# opt freq B3LYP/6-31G(d) empiricaldispersion=gd3bj scf=xqc

CID_81641684_JID_4915_neutraal

0 1
C          1.09842        0.00458        0.01710
C          0.66305        1.25325       -0.71068
C         -0.11970        1.14839       -1.80346
C         -0.56818        2.25414       -2.57586
C          0.15527        3.23587       -3.22368
C         -0.67051        4.17400       -3.90829
C         -2.02032        3.89123       -3.79364
S         -2.24604        2.45695       -2.86555
C         -3.22247        4.64480       -4.37831
C         -3.93605        3.77373       -5.43089
C         -4.21972        5.03121       -3.26692
C         -2.77616        5.95070       -5.07239
C          1.16877        2.53275       -0.09816
O          0.65668        2.64581        1.22303
H          0.75860       -0.90819       -0.48404
H          0.69619       -0.00959        1.03510
H          2.19118       -0.03934        0.07252
H         -0.46459        0.16628       -2.12276
H          1.23761        3.28333       -3.20849
H         -0.27491        5.01629       -4.46251
H         -4.35698        2.86256       -4.99134
H         -4.76349        4.31907       -5.89950
H         -3.24565        3.46696       -6.22553
H         -3.72897        5.61556       -2.47962
H         -5.04247        5.63510       -3.66724
H         -4.67040        4.15174       -2.79376
H         -2.26086        6.62038       -4.37365
H         -2.09627        5.75074       -5.90891
H         -3.63572        6.49800       -5.47709
H          2.26223        2.52080       -0.04489
H          0.87758        3.43519       -0.63844
H         -0.31268        2.63632        1.13809

--Link1--
%chk=JID_4915.chk
%mem=8GB
%nprocshared=4
# B3LYP/6-311++G(d,p) empiricaldispersion=gd3bj scf=xqc pop=npa geom=check

CID_81641684_JID_4915_Energie_neutraal

0 1

--Link1--
%chk=JID_4915.chk
%mem=8GB
%nprocshared=4
# B3LYP/6-311++G(d,p) empiricaldispersion=gd3bj scf=xqc pop=npa geom=check

CID_81641684_JID_4915_Energie_kation

1 2

--Link1--
%chk=JID_4915.chk
%mem=8GB
%nprocshared=4
# B3LYP/6-311++G(d,p) empiricaldispersion=gd3bj scf=xqc pop=npa geom=check

CID_81641684_JID_4915_Energie_anion

-1 2
