%chk=JID_5199.chk
%mem=8GB
%nprocshared=4
# opt freq B3LYP/6-31G(d) empiricaldispersion=gd3bj scf=xqc

CID_116606835_JID_5199_neutraal

0 1
C          1.08011        0.05974       -0.00357
C          0.31185        0.63542        0.93014
C         -1.16666        0.38229        1.06896
C         -1.52274       -0.76470        2.02978
C         -1.48373       -0.32744        3.51098
O         -2.53070       -0.15593        4.14882
C         -0.14605       -0.05960        4.18358
C          0.86167       -1.19725        4.05204
C          0.46404       -2.48137        4.81253
C          1.72637       -2.80100        5.63529
C          1.81916       -1.79952        6.79936
C          2.22950       -0.49607        6.09976
C          2.27407       -0.89873        4.61602
C          2.84656       -2.31636        4.71525
N         -2.90167       -1.23358        1.72527
H          0.67372       -0.65078       -0.71805
H          2.13819        0.29307       -0.07770
H          0.76481        1.35758        1.60522
H         -1.64927        1.31532        1.38755
H         -1.56819        0.16232        0.06976
H         -0.86651       -1.62722        1.88584
H          0.26046        0.87165        3.77959
H         -0.36383        0.13142        5.24108
H          0.98550       -1.45469        2.99347
H         -0.42047       -2.35797        5.44586
H          0.25830       -3.28632        4.09729
H          1.78996       -3.84434        5.95014
H          0.87371       -1.69607        7.34115
H          2.59189       -2.10216        7.51494
H          1.54523        0.32806        6.31458
H          3.22597       -0.19113        6.44135
H          2.85219       -0.21098        3.99466
H          3.83643       -2.35192        5.18258
H          2.87601       -2.84193        3.75491
H         -3.13469       -1.97429        2.39090
H         -3.54444       -0.47971        1.98886

--Link1--
%chk=JID_5199.chk
%mem=8GB
%nprocshared=4
# B3LYP/6-311++G(d,p) empiricaldispersion=gd3bj scf=xqc pop=npa geom=check

CID_116606835_JID_5199_Energie_neutraal

0 1

--Link1--
%chk=JID_5199.chk
%mem=8GB
%nprocshared=4
# B3LYP/6-311++G(d,p) empiricaldispersion=gd3bj scf=xqc pop=npa geom=check

CID_116606835_JID_5199_Energie_kation

1 2

--Link1--
%chk=JID_5199.chk
%mem=8GB
%nprocshared=4
# B3LYP/6-311++G(d,p) empiricaldispersion=gd3bj scf=xqc pop=npa geom=check

CID_116606835_JID_5199_Energie_anion

-1 2
