%chk=JID_9789.chk
%mem=8GB
%nprocshared=4
# opt freq B3LYP/6-31G(d) empiricaldispersion=gd3bj scf=xqc

CID_937624_JID_9789_neutraal

0 1
C         -1.98800       -0.53800        0.23300
C         -1.84928        0.97142        0.08282
C         -0.55443        1.46966        0.70647
C          0.65973        0.70339        0.22679
O          1.75395        1.25437        0.11580
C          0.50677       -0.77246        0.01123
C          1.58366       -1.53647        0.26424
N          1.71572       -2.89617        0.12448
C          2.82099       -3.71382        0.42700
C          3.95058       -3.26565        1.12690
C          5.03473       -4.11953        1.37453
C          5.00485       -5.44309        0.93031
C          3.89573       -5.89543        0.20825
C          2.81686       -5.03927       -0.03514
C          6.10324       -6.40619        1.15006
O          6.44568       -7.27066        0.36284
O          6.62875       -6.33472        2.38439
O          6.13555       -3.62508        2.01874
C         -0.83221       -1.25703       -0.45956
H         -2.93713       -0.86562       -0.20639
H         -2.01562       -0.80659        1.29646
H         -1.87154        1.23504       -0.98206
H         -2.70141        1.47228        0.55567
H         -0.41996        2.52733        0.45386
H         -0.59376        1.38453        1.79829
H          2.49456       -1.04386        0.59800
H          0.92125       -3.38419       -0.27376
H          3.99412       -2.24440        1.48895
H          3.86769       -6.91641       -0.16750
H          1.97166       -5.42068       -0.60354
H          7.31893       -7.02749        2.39335
H          5.96596       -2.71142        2.30077
H         -0.90060       -1.09415       -1.54254
H         -0.95067       -2.33323       -0.29374

--Link1--
%chk=JID_9789.chk
%mem=8GB
%nprocshared=4
# B3LYP/6-311++G(d,p) empiricaldispersion=gd3bj scf=xqc pop=npa geom=check

CID_937624_JID_9789_Energie_neutraal

0 1

--Link1--
%chk=JID_9789.chk
%mem=8GB
%nprocshared=4
# B3LYP/6-311++G(d,p) empiricaldispersion=gd3bj scf=xqc pop=npa geom=check

CID_937624_JID_9789_Energie_kation

1 2

--Link1--
%chk=JID_9789.chk
%mem=8GB
%nprocshared=4
# B3LYP/6-311++G(d,p) empiricaldispersion=gd3bj scf=xqc pop=npa geom=check

CID_937624_JID_9789_Energie_anion

-1 2
