%chk=JID_8971.chk
%mem=8GB
%nprocshared=4
# opt freq B3LYP/6-31G(d) empiricaldispersion=gd3bj scf=xqc

CID_56711636_JID_8971_neutraal

0 1
C         -1.15700        1.21200        0.00000
C          0.22809        1.23114        0.19196
C          0.88970        0.04995        0.50470
C          0.19067       -1.14303        0.62879
C         -1.19336       -1.15797        0.43754
C         -1.89172        0.01896        0.11892
C         -3.34852        0.00317       -0.08617
C         -4.21291       -0.50613        0.89267
C         -5.59873       -0.51830        0.69496
C         -6.16018       -0.01749       -0.48478
C         -5.30518        0.47438       -1.47250
C         -3.91842        0.49074       -1.27136
S         -7.93974       -0.09180       -0.63911
C         -8.32311        1.30912       -1.74666
C         -7.85825        2.64041       -1.18726
O         -7.29649        3.49042       -1.87241
N         -8.17580        2.89812        0.11609
O          2.23847        0.02010        0.69889
H         -1.66772        2.14397       -0.23570
H          0.76368        2.16996        0.09499
H          0.71910       -2.06087        0.86982
H         -1.72465       -2.10338        0.52607
H         -3.81243       -0.89268        1.82803
H         -6.23350       -0.92535        1.47942
H         -5.68178        0.84656       -2.42032
H         -3.28014        0.87689       -2.06453
H         -7.87809        1.14337       -2.73153
H         -9.40892        1.35802       -1.87751
H         -8.36351        2.12564        0.74405
H         -7.78842        3.74347        0.51499
H          2.58909        0.91712        0.57424

--Link1--
%chk=JID_8971.chk
%mem=8GB
%nprocshared=4
# B3LYP/6-311++G(d,p) empiricaldispersion=gd3bj scf=xqc pop=npa geom=check

CID_56711636_JID_8971_Energie_neutraal

0 1

--Link1--
%chk=JID_8971.chk
%mem=8GB
%nprocshared=4
# B3LYP/6-311++G(d,p) empiricaldispersion=gd3bj scf=xqc pop=npa geom=check

CID_56711636_JID_8971_Energie_kation

1 2

--Link1--
%chk=JID_8971.chk
%mem=8GB
%nprocshared=4
# B3LYP/6-311++G(d,p) empiricaldispersion=gd3bj scf=xqc pop=npa geom=check

CID_56711636_JID_8971_Energie_anion

-1 2
