%chk=JID_7139.chk
%mem=8GB
%nprocshared=4
# opt freq B3LYP/6-31G(d) empiricaldispersion=gd3bj scf=xqc

CID_113670261_JID_7139_neutraal

0 1
C          0.96760        0.08892       -0.03230
C          1.42729        0.58944       -1.38749
O          1.71987       -0.52969       -2.22846
C          3.02165       -0.60819       -2.64671
C          3.27920       -0.86221       -3.99912
C          4.59138       -1.04936       -4.44270
C          5.67221       -0.97916       -3.54708
C          5.40135       -0.71045       -2.19602
C          4.08807       -0.54351       -1.74689
C          7.11212       -1.15738       -4.00906
C          7.30925       -2.33964       -4.95665
C          7.68721       -2.25622       -6.24733
C          7.07543       -3.69567       -4.33313
N          7.60355        0.11376       -4.53922
O          2.29577       -1.03305       -4.93832
C          1.48262        0.12788       -5.13061
C          0.02459       -0.29415       -5.11401
H          0.10397       -0.57570       -0.14046
H          0.68902        0.92410        0.61650
H          1.75416       -0.49116        0.46005
H          0.60778        1.14065       -1.86221
H          2.26263        1.29300       -1.28583
H          4.76284       -1.26090       -5.49518
H          6.21738       -0.64200       -1.47939
H          3.91415       -0.38798       -0.68699
H          7.72911       -1.37307       -3.12610
H          7.81459       -3.14730       -6.85598
H          7.87000       -1.31084       -6.74568
H          7.72033       -3.82749       -3.45813
H          6.03316       -3.80590       -4.01821
H          7.29555       -4.51276       -5.02871
H          8.55113       -0.02247       -4.88101
H          7.02889        0.37373       -5.33673
H          1.65968        0.92199       -4.39579
H          1.72852        0.54101       -6.11530
H         -0.23909       -0.75045       -4.15462
H         -0.63172        0.56305       -5.28791
H         -0.16683       -1.04711       -5.88578

--Link1--
%chk=JID_7139.chk
%mem=8GB
%nprocshared=4
# B3LYP/6-311++G(d,p) empiricaldispersion=gd3bj scf=xqc pop=npa geom=check

CID_113670261_JID_7139_Energie_neutraal

0 1

--Link1--
%chk=JID_7139.chk
%mem=8GB
%nprocshared=4
# B3LYP/6-311++G(d,p) empiricaldispersion=gd3bj scf=xqc pop=npa geom=check

CID_113670261_JID_7139_Energie_kation

1 2

--Link1--
%chk=JID_7139.chk
%mem=8GB
%nprocshared=4
# B3LYP/6-311++G(d,p) empiricaldispersion=gd3bj scf=xqc pop=npa geom=check

CID_113670261_JID_7139_Energie_anion

-1 2
