%chk=JID_5454.chk
%mem=8GB
%nprocshared=4
# opt freq B3LYP/6-31G(d) empiricaldispersion=gd3bj scf=xqc

CID_151122104_JID_5454_neutraal

0 1
C          1.06225       -0.07817        0.00380
C          0.53023       -0.06152        1.44633
C          1.02595        1.23585        2.10913
C         -1.01849       -0.12646        1.46055
C         -1.70287       -1.22359        0.60868
C         -3.19035       -1.27777        0.93276
C         -3.24523       -2.19659        2.14320
O         -2.05410       -3.00060        2.11643
C         -1.32418       -2.65898        0.93294
O          1.13522       -1.21473        2.08293
C          0.91924       -1.49495        3.39568
O          0.28048       -0.79326        4.16615
N          1.54335       -2.66604        3.70096
N          1.08171       -3.16456        4.73651
N          0.68496       -3.65312        5.68781
H          0.62383        0.72414       -0.59871
H          0.86159       -1.03640       -0.48736
H          2.15251        0.03952       -0.00799
H          0.74976        2.11548        1.51729
H          0.60317        1.37394        3.10867
H          2.11552        1.22293        2.22571
H         -1.36723       -0.20772        2.49540
H         -1.40378        0.83880        1.10188
H         -1.54091       -1.00461       -0.45207
H         -3.73051       -1.74387        0.09900
H         -3.65304       -0.30425        1.11982
H         -3.24840       -1.63169        3.08069
H         -4.12503       -2.84661        2.12722
H         -1.66185       -3.33253        0.13524
H         -0.26123       -2.84705        1.07707

--Link1--
%chk=JID_5454.chk
%mem=8GB
%nprocshared=4
# B3LYP/6-311++G(d,p) empiricaldispersion=gd3bj scf=xqc pop=npa geom=check

CID_151122104_JID_5454_Energie_neutraal

0 1

--Link1--
%chk=JID_5454.chk
%mem=8GB
%nprocshared=4
# B3LYP/6-311++G(d,p) empiricaldispersion=gd3bj scf=xqc pop=npa geom=check

CID_151122104_JID_5454_Energie_kation

1 2

--Link1--
%chk=JID_5454.chk
%mem=8GB
%nprocshared=4
# B3LYP/6-311++G(d,p) empiricaldispersion=gd3bj scf=xqc pop=npa geom=check

CID_151122104_JID_5454_Energie_anion

-1 2
