%chk=JID_9473.chk
%mem=8GB
%nprocshared=4
# opt freq B3LYP/6-31G(d) empiricaldispersion=gd3bj scf=xqc

CID_116936499_JID_9473_neutraal

0 1
C         -3.40300        0.03800        0.00100
C         -1.94695       -0.03058       -0.26351
N         -1.32529       -0.89953       -1.03290
C          0.00329       -0.55343       -0.98448
C          0.19987        0.54448       -0.15870
N         -1.05790        0.86025        0.28658
C          1.45543        1.11157        0.07805
C          2.57027        0.53606       -0.57006
C          2.37859       -0.57626       -1.41001
C          1.10651       -1.13063       -1.62376
C          3.94697        1.13216       -0.30408
C          4.55091        0.68233        1.04746
C          4.65279       -0.82871        1.36440
C          5.62723       -1.59908        0.46277
C          5.83807       -3.03778        0.93861
N          6.27819       -3.08856        2.33010
C          5.29410       -2.46229        3.20979
C          5.08248       -0.99787        2.83667
N          4.87602        1.01101       -1.42888
H         -3.60062        0.21958        1.06203
H         -3.85756        0.84493       -0.58166
H         -3.88841       -0.90218       -0.27831
H         -1.29222        1.62207        0.90520
H          1.56680        1.97092        0.73168
H          3.22029       -1.03188       -1.92424
H          0.96988       -1.98522       -2.27652
H          3.79024        2.21679       -0.21734
H          5.54515        1.13777        1.15742
H          3.93878        1.14038        1.83817
H          3.65827       -1.28152        1.26273
H          5.24447       -1.64978       -0.55919
H          6.59335       -1.07983        0.42664
H          4.91453       -3.61635        0.81249
H          6.59897       -3.51291        0.30951
H          6.40215       -4.06246        2.60655
H          5.65447       -2.52071        4.24265
H          4.34375       -3.00847        3.17036
H          6.01146       -0.44099        3.01869
H          4.32095       -0.56686        3.49799
H          5.74570        1.48732       -1.19597
H          5.12667        0.04148       -1.58385

--Link1--
%chk=JID_9473.chk
%mem=8GB
%nprocshared=4
# B3LYP/6-311++G(d,p) empiricaldispersion=gd3bj scf=xqc pop=npa geom=check

CID_116936499_JID_9473_Energie_neutraal

0 1

--Link1--
%chk=JID_9473.chk
%mem=8GB
%nprocshared=4
# B3LYP/6-311++G(d,p) empiricaldispersion=gd3bj scf=xqc pop=npa geom=check

CID_116936499_JID_9473_Energie_kation

1 2

--Link1--
%chk=JID_9473.chk
%mem=8GB
%nprocshared=4
# B3LYP/6-311++G(d,p) empiricaldispersion=gd3bj scf=xqc pop=npa geom=check

CID_116936499_JID_9473_Energie_anion

-1 2
