%chk=JID_1758.chk
%mem=8GB
%nprocshared=4
# opt freq B3LYP/6-31G(d) empiricaldispersion=gd3bj scf=xqc

CID_19650599_JID_1758_neutraal

0 1
C          0.92280        0.06249        0.01163
C          1.19743        0.52294       -1.40658
N          0.88705       -0.51860       -2.37284
C          0.07149       -0.40942       -3.44093
S          0.45180       -1.22413       -4.84418
N         -1.06315        0.32217       -3.39660
C         -1.91586        0.49530       -2.22650
C         -3.26477        1.12544       -2.57377
C         -4.19731        0.19767       -3.35451
O         -5.17831       -0.41461       -2.51790
C         -4.70132       -1.54359       -1.80206
H         -0.13251       -0.19215        0.14983
H          1.18348        0.84929        0.72592
H          1.51211       -0.82841        0.25349
H          0.67017        1.44973       -1.64460
H          2.26677        0.73721       -1.51551
H          1.65682       -1.15338       -2.55520
H         -1.54541        0.27914       -4.28752
H         -2.02841       -0.47671       -1.73824
H         -1.40707        1.16122       -1.52718
H         -3.75568        1.44793       -1.64805
H         -3.07586        2.02280       -3.17630
H         -4.76416        0.81071       -4.06436
H         -3.66667       -0.55667       -3.94578
H         -4.20691       -2.25442       -2.47087
H         -4.02342       -1.23196       -1.00407
H         -5.55906       -2.04108       -1.34084

--Link1--
%chk=JID_1758.chk
%mem=8GB
%nprocshared=4
# B3LYP/6-311++G(d,p) empiricaldispersion=gd3bj scf=xqc pop=npa geom=check

CID_19650599_JID_1758_Energie_neutraal

0 1

--Link1--
%chk=JID_1758.chk
%mem=8GB
%nprocshared=4
# B3LYP/6-311++G(d,p) empiricaldispersion=gd3bj scf=xqc pop=npa geom=check

CID_19650599_JID_1758_Energie_kation

1 2

--Link1--
%chk=JID_1758.chk
%mem=8GB
%nprocshared=4
# B3LYP/6-311++G(d,p) empiricaldispersion=gd3bj scf=xqc pop=npa geom=check

CID_19650599_JID_1758_Energie_anion

-1 2
