%chk=JID_3983.chk
%mem=8GB
%nprocshared=4
# opt freq B3LYP/6-31G(d) empiricaldispersion=gd3bj scf=xqc

CID_115021750_JID_3983_neutraal

0 1
C          1.13300        1.27300        0.29400
C          1.83509        0.05260       -0.29764
C          1.24438       -1.27990        0.19438
C         -0.24502       -1.41538       -0.14902
S         -1.25883       -0.08873        0.57622
C         -0.34539        1.34322       -0.06191
C          2.03855       -2.43439       -0.34073
C          2.08312       -2.96947       -1.60971
O          2.97546       -3.99720       -1.61160
C          3.43452       -4.03730       -0.32481
N          2.91160       -3.12371        0.47249
C          4.45496       -5.06760        0.00253
O          4.39140       -5.34779        1.40327
H          1.26117        1.28314        1.38387
H          1.62710        2.17678       -0.08290
H          1.78849        0.10477       -1.39366
H          2.89979        0.10129       -0.03408
H          1.34199       -1.30665        1.28965
H         -0.40487       -1.40765       -1.23355
H         -0.63468       -2.37020        0.22208
H         -0.78707        2.24818        0.36729
H         -0.48177        1.39558       -1.14729
H          1.59373       -2.75716       -2.54904
H          4.27674       -5.99728       -0.54406
H          5.45727       -4.69808       -0.23055
H          4.04086       -4.53884        1.82635

--Link1--
%chk=JID_3983.chk
%mem=8GB
%nprocshared=4
# B3LYP/6-311++G(d,p) empiricaldispersion=gd3bj scf=xqc pop=npa geom=check

CID_115021750_JID_3983_Energie_neutraal

0 1

--Link1--
%chk=JID_3983.chk
%mem=8GB
%nprocshared=4
# B3LYP/6-311++G(d,p) empiricaldispersion=gd3bj scf=xqc pop=npa geom=check

CID_115021750_JID_3983_Energie_kation

1 2

--Link1--
%chk=JID_3983.chk
%mem=8GB
%nprocshared=4
# B3LYP/6-311++G(d,p) empiricaldispersion=gd3bj scf=xqc pop=npa geom=check

CID_115021750_JID_3983_Energie_anion

-1 2
