%chk=JID_10475.chk
%mem=8GB
%nprocshared=4
# opt freq B3LYP/6-31G(d) empiricaldispersion=gd3bj scf=xqc

CID_104062927_JID_10475_neutraal

0 1
C          0.93679        0.05043        0.05883
C          0.27905       -1.07879       -0.71376
C          0.70023       -2.44399       -0.17879
O         -0.26974       -2.93200        0.75489
C          0.10312       -2.82499        2.06406
C          1.11523       -3.54875        2.70396
N          1.40702       -3.36968        4.01898
C          0.65232       -2.49914        4.72270
C         -0.39678       -1.78166        4.18165
C         -0.67967       -1.96072        2.83352
O          1.98897       -4.42237        2.10282
C          1.57503       -5.23887        1.08269
C          0.38451       -5.96529        1.09391
C          0.04422       -6.74879       -0.01114
C          0.90131       -6.81926       -1.11334
C          2.11532       -6.12227       -1.10581
C          2.45956       -5.35022        0.00635
C          2.99254       -6.20422       -2.29789
O          2.77740       -6.85966       -3.29890
O          4.09247       -5.43700       -2.18672
H          2.02751       -0.00418       -0.02010
H          0.66863        0.02754        1.11823
H          0.62018        1.01721       -0.34565
H         -0.81013       -0.96410       -0.67391
H          0.58740       -0.99207       -1.76180
H          0.68945       -3.15069       -1.01572
H          1.72117       -2.42300        0.22054
H          0.92436       -2.39217        5.76917
H         -0.97662       -1.09768        4.79088
H         -1.49682       -1.41329        2.37150
H         -0.28865       -5.91625        1.94558
H         -0.89407       -7.29843       -0.01824
H          0.61973       -7.41941       -1.97665
H          3.39785       -4.80162        0.03488
H          4.57028       -5.58202       -3.03006

--Link1--
%chk=JID_10475.chk
%mem=8GB
%nprocshared=4
# B3LYP/6-311++G(d,p) empiricaldispersion=gd3bj scf=xqc pop=npa geom=check

CID_104062927_JID_10475_Energie_neutraal

0 1

--Link1--
%chk=JID_10475.chk
%mem=8GB
%nprocshared=4
# B3LYP/6-311++G(d,p) empiricaldispersion=gd3bj scf=xqc pop=npa geom=check

CID_104062927_JID_10475_Energie_kation

1 2

--Link1--
%chk=JID_10475.chk
%mem=8GB
%nprocshared=4
# B3LYP/6-311++G(d,p) empiricaldispersion=gd3bj scf=xqc pop=npa geom=check

CID_104062927_JID_10475_Energie_anion

-1 2
