%chk=JID_2586.chk
%mem=8GB
%nprocshared=4
# opt freq B3LYP/6-31G(d) empiricaldispersion=gd3bj scf=xqc

CID_88643444_JID_2586_neutraal

0 1
C          1.05828        0.03071        0.07523
C          1.31256        1.39149       -0.55522
C          1.78489        1.29628       -2.00492
S          0.40895        1.01113       -3.17399
C          0.94951       -0.51329       -4.08423
C          2.39521       -0.37515       -4.57792
C          0.69473       -1.79700       -3.26116
C         -0.76590       -2.03666       -2.81378
C         -1.80845       -2.02166       -3.92569
C          1.18867       -3.04494       -3.96155
O          1.74465       -3.98675       -3.41827
O          0.91074       -3.09440       -5.27560
H          0.20289       -0.46983       -0.38159
H          0.83878        0.14802        1.14149
H          1.93445       -0.61880       -0.01715
H          0.42064        2.02298       -0.46584
H          2.10047        1.88499        0.02737
H          2.23511        2.25274       -2.29144
H          2.56235        0.53527       -2.08399
H          0.31908       -0.53369       -4.98047
H          3.12652       -0.56835       -3.78758
H          2.60202       -1.09697       -5.37509
H          2.58706        0.61767       -4.99915
H          1.30869       -1.73093       -2.35196
H         -0.82957       -3.00563       -2.30161
H         -1.05660       -1.28767       -2.07011
H         -1.61366       -2.79476       -4.67361
H         -2.80066       -2.21565       -3.50437
H         -1.85267       -1.05195       -4.42881
H          1.24425       -3.97296       -5.55708

--Link1--
%chk=JID_2586.chk
%mem=8GB
%nprocshared=4
# B3LYP/6-311++G(d,p) empiricaldispersion=gd3bj scf=xqc pop=npa geom=check

CID_88643444_JID_2586_Energie_neutraal

0 1

--Link1--
%chk=JID_2586.chk
%mem=8GB
%nprocshared=4
# B3LYP/6-311++G(d,p) empiricaldispersion=gd3bj scf=xqc pop=npa geom=check

CID_88643444_JID_2586_Energie_kation

1 2

--Link1--
%chk=JID_2586.chk
%mem=8GB
%nprocshared=4
# B3LYP/6-311++G(d,p) empiricaldispersion=gd3bj scf=xqc pop=npa geom=check

CID_88643444_JID_2586_Energie_anion

-1 2
