%chk=JID_9191.chk
%mem=8GB
%nprocshared=4
# opt=(cartesian,calcfc,maxcycle=500) freq B3LYP/6-31G(d) empiricaldispersion=gd3bj scf=xqc

CID_75202259_JID_9191_neutraal

0 1
# Mixture

--Link1--
%chk=JID_9191.chk
%mem=8GB
%nprocshared=4
# B3LYP/6-311++G(d,p) empiricaldispersion=gd3bj scf=xqc pop=npa geom=check

CID_75202259_JID_9191_Energie_neutraal

0 1

--Link1--
%chk=JID_9191.chk
%mem=8GB
%nprocshared=4
# B3LYP/6-311++G(d,p) empiricaldispersion=gd3bj scf=xqc pop=npa geom=check

CID_75202259_JID_9191_Energie_kation

1 2

--Link1--
%chk=JID_9191.chk
%mem=8GB
%nprocshared=4
# B3LYP/6-311++G(d,p) empiricaldispersion=gd3bj scf=xqc pop=npa geom=check

CID_75202259_JID_9191_Energie_anion

-1 2
