%chk=JID_5329.chk
%mem=8GB
%nprocshared=4
# opt freq B3LYP/6-31G(d) empiricaldispersion=gd3bj scf=xqc

CID_82396388_JID_5329_neutraal

0 1
C         -0.15500        1.21200        0.25300
C         -1.59059        0.96970       -0.21951
C         -1.77762       -0.54331       -0.07636
N         -0.44830       -1.03841       -0.32761
C          0.52178       -0.09316       -0.07650
O          1.72095       -0.30518       -0.07216
C         -2.32239       -1.04579        1.25014
C         -1.52466       -1.20195        2.39576
C         -2.07718       -1.65024        3.59834
C         -3.43508       -1.94583        3.67779
C         -4.24288       -1.79377        2.55491
C         -3.69153       -1.34790        1.35188
C         -2.66737        1.76581        0.45609
O         -3.86141        1.67685        0.21444
O         -2.22283        2.66973        1.34415
H         -0.07371        1.39034        1.32930
H          0.31266        2.03403       -0.29593
H         -1.62498        1.23951       -1.28527
H         -2.40822       -0.92622       -0.88823
H         -0.20471       -2.01452       -0.44142
H         -0.45901       -0.98576        2.37359
H         -1.44358       -1.76955        4.47389
H         -3.86310       -2.29363        4.61423
H         -5.30484       -2.01840        2.61443
H         -4.34837       -1.22451        0.49179
H         -3.03711        3.09544        1.68813

--Link1--
%chk=JID_5329.chk
%mem=8GB
%nprocshared=4
# B3LYP/6-311++G(d,p) empiricaldispersion=gd3bj scf=xqc pop=npa geom=check

CID_82396388_JID_5329_Energie_neutraal

0 1

--Link1--
%chk=JID_5329.chk
%mem=8GB
%nprocshared=4
# B3LYP/6-311++G(d,p) empiricaldispersion=gd3bj scf=xqc pop=npa geom=check

CID_82396388_JID_5329_Energie_kation

1 2

--Link1--
%chk=JID_5329.chk
%mem=8GB
%nprocshared=4
# B3LYP/6-311++G(d,p) empiricaldispersion=gd3bj scf=xqc pop=npa geom=check

CID_82396388_JID_5329_Energie_anion

-1 2
