%chk=JID_3266.chk
%mem=8GB
%nprocshared=4
# opt freq B3LYP/6-31G(d) empiricaldispersion=gd3bj scf=xqc

CID_139692221_JID_3266_neutraal

0 1
C          0.94604       -0.07860       -0.03017
C          1.92944       -0.03034        1.14749
C          3.10553        0.91977        0.89433
C          2.71957        2.36150        1.15057
O          2.81434        2.90984        2.23939
O          2.16313        2.90984        0.03833
C          1.53923        4.20558        0.16787
C          0.14677        4.15675       -0.47855
O         -0.92120        3.85065        0.43052
C         -0.89561        2.56322        1.03903
C         -1.71759        1.50868        0.30641
C         -1.21092        1.17603       -1.08752
N         -0.79060        0.90007       -2.24390
H          0.90173        0.91560       -0.44785
H          0.00900       -0.52521        0.29851
H          1.35765       -0.72817       -0.81189
H          1.39055        0.28233        2.04984
H          2.30867       -1.04211        1.32963
H          3.92639        0.68448        1.58214
H          3.50916        0.81484       -0.11869
H          1.47055        4.53900        1.20803
H          2.17245        4.90226       -0.39075
H         -0.08594        5.15669       -0.86062
H          0.12237        3.47146       -1.32906
H          0.11686        2.23102        1.24377
H         -1.35837        2.69906        2.02395
H         -1.78082        0.59518        0.90611
H         -2.74196        1.88293        0.18608

--Link1--
%chk=JID_3266.chk
%mem=8GB
%nprocshared=4
# B3LYP/6-311++G(d,p) empiricaldispersion=gd3bj scf=xqc pop=npa geom=check

CID_139692221_JID_3266_Energie_neutraal

0 1

--Link1--
%chk=JID_3266.chk
%mem=8GB
%nprocshared=4
# B3LYP/6-311++G(d,p) empiricaldispersion=gd3bj scf=xqc pop=npa geom=check

CID_139692221_JID_3266_Energie_kation

1 2

--Link1--
%chk=JID_3266.chk
%mem=8GB
%nprocshared=4
# B3LYP/6-311++G(d,p) empiricaldispersion=gd3bj scf=xqc pop=npa geom=check

CID_139692221_JID_3266_Energie_anion

-1 2
