%chk=JID_4981.chk
%mem=8GB
%nprocshared=4
# opt freq B3LYP/6-31G(d) empiricaldispersion=gd3bj scf=xqc

CID_90280856_JID_4981_neutraal

0 1
C          0.92019        0.01028       -0.05937
C          0.02792        0.14588       -1.28517
C          0.52680       -0.64969       -2.49403
C          0.45811       -2.13739       -2.29341
C         -0.35152       -2.95031       -2.98356
C          3.24461        3.61417        0.66516
C          2.01942        4.15973       -0.05979
C          1.98317        3.94383       -1.55968
C          2.65206        2.88774       -2.19485
C          2.55693        2.71079       -3.57770
C          1.78612        3.58121       -4.34405
C          1.10674        4.62902       -3.72917
C          1.20152        4.80669       -2.34776
O          0.86109        3.57607        0.53684
H          0.92050       -1.01383        0.32550
H          0.56049        0.66406        0.74137
H          1.95204        0.29228       -0.28954
H         -0.99287       -0.16057       -1.02676
H         -0.02267        1.20490       -1.56351
H         -0.06885       -0.36064       -3.36894
H          1.56350       -0.37407       -2.72077
H          1.12340       -2.56956       -1.54886
H         -0.35274       -4.02026       -2.79883
H         -1.03039       -2.57205       -3.74153
H          3.26855        2.51891        0.65001
H          3.21314        3.90040        1.72260
H          4.17417        3.99517        0.23088
H          1.97556        5.23812        0.13581
H          3.25147        2.18160       -1.62595
H          3.08351        1.88856       -4.05599
H          1.71341        3.44134       -5.41938
H          0.50125        5.30805       -4.32404
H          0.65713        5.62743       -1.88337
H          0.29469        3.23941       -0.17843

--Link1--
%chk=JID_4981.chk
%mem=8GB
%nprocshared=4
# B3LYP/6-311++G(d,p) empiricaldispersion=gd3bj scf=xqc pop=npa geom=check

CID_90280856_JID_4981_Energie_neutraal

0 1

--Link1--
%chk=JID_4981.chk
%mem=8GB
%nprocshared=4
# B3LYP/6-311++G(d,p) empiricaldispersion=gd3bj scf=xqc pop=npa geom=check

CID_90280856_JID_4981_Energie_kation

1 2

--Link1--
%chk=JID_4981.chk
%mem=8GB
%nprocshared=4
# B3LYP/6-311++G(d,p) empiricaldispersion=gd3bj scf=xqc pop=npa geom=check

CID_90280856_JID_4981_Energie_anion

-1 2
