%chk=JID_3154.chk
%mem=8GB
%nprocshared=4
# opt freq B3LYP/6-31G(d) empiricaldispersion=gd3bj scf=xqc

CID_115711562_JID_3154_neutraal

0 1
C          0.92769        0.05680        0.03932
C          0.55545       -1.34939       -0.40992
C          0.44066       -2.43866        0.67430
C          0.38553       -2.00514        2.14648
N         -0.89054       -1.37596        2.49028
C         -0.99032       -1.06599        3.92553
C         -0.79553        0.42956        4.29426
C         -1.79999        1.31518        3.53565
C         -1.04980        0.58660        5.80715
C          0.63200        0.91110        3.99472
S         -0.85475       -1.30984       -1.58619
O         -1.08117       -2.70721       -2.08299
C         -2.19583       -0.89668       -0.45876
H          0.15468        0.51563        0.66010
H          1.07774        0.71560       -0.82388
H          1.86458        0.04920        0.60568
H          1.37482       -1.67374       -1.06683
H         -0.38946       -3.12562        0.46783
H          1.34114       -3.06385        0.58452
H          0.51448       -2.90872        2.75651
H          1.22903       -1.34784        2.37638
H         -1.62626       -2.05325        2.27705
H         -2.00158       -1.35883        4.24032
H         -0.31350       -1.69647        4.51746
H         -2.83044        0.99210        3.72160
H         -1.71862        2.36191        3.85038
H         -1.62924        1.28558        2.45436
H         -0.34822       -0.02004        6.39090
H         -0.93240        1.62899        6.12455
H         -2.06533        0.27214        6.07337
H          1.37561        0.26686        4.47668
H          0.83918        0.92439        2.92159
H          0.78896        1.93136        4.36371
H         -2.38727       -1.72674        0.22134
H         -1.97553        0.01882        0.09100
H         -3.09783       -0.73204       -1.05454

--Link1--
%chk=JID_3154.chk
%mem=8GB
%nprocshared=4
# B3LYP/6-311++G(d,p) empiricaldispersion=gd3bj scf=xqc pop=npa geom=check

CID_115711562_JID_3154_Energie_neutraal

0 1

--Link1--
%chk=JID_3154.chk
%mem=8GB
%nprocshared=4
# B3LYP/6-311++G(d,p) empiricaldispersion=gd3bj scf=xqc pop=npa geom=check

CID_115711562_JID_3154_Energie_kation

1 2

--Link1--
%chk=JID_3154.chk
%mem=8GB
%nprocshared=4
# B3LYP/6-311++G(d,p) empiricaldispersion=gd3bj scf=xqc pop=npa geom=check

CID_115711562_JID_3154_Energie_anion

-1 2
