%chk=JID_10707.chk
%mem=8GB
%nprocshared=4
# opt freq B3LYP/6-31G(d) empiricaldispersion=gd3bj scf=xqc

CID_63738832_JID_10707_neutraal

0 1
C          1.34400       -0.22500        0.03600
C          0.83242        1.08004       -1.01731
C         -0.90284        1.56302       -0.99356
C         -2.18463        0.57919        0.24331
C         -1.46873       -0.74309        1.26220
C          0.24853       -1.09684        1.12409
C         -3.72998        0.58645        0.65065
C         -4.22575        1.27404        1.95211
C         -4.15114        2.80681        2.19630
C         -4.48572        3.81128        1.05968
C         -3.95842        3.40461       -0.27662
C         -4.68723        3.41722       -1.45384
S         -4.20459        2.30799       -2.67682
C         -2.98545        1.59150       -1.68596
C         -2.10358        0.07578       -1.88321
C         -0.79500       -0.29509       -0.72277
C         -0.40483        1.03610        0.73736
C         -1.41307        2.51102        0.79840
C         -2.70746        2.71761       -0.40976
O         -5.00918        3.10882        3.31591
H          2.39372       -0.51665        0.02474
H          1.53269        1.59591       -1.66505
H         -1.02624        2.40788       -1.69674
H         -2.09089       -1.30722        1.95037
H          0.66390       -1.89226        1.74196
H         -4.44117        0.77985       -0.15384
H         -3.94160       -0.48380        0.80905
H         -5.27866        0.97782        2.06692
H         -3.72216        0.79253        2.80223
H         -3.15417        3.03573        2.57578
H         -5.57591        3.93103        1.00387
H         -4.09599        4.80142        1.32758
H         -5.61817        3.94125       -1.62424
H         -2.35557       -0.55789       -2.72539
H         -0.31741       -1.25652       -0.96513
H          0.33916        1.02623        1.54755
H         -1.30092        3.23586        1.59700
H         -5.91761        2.86422        3.06871

--Link1--
%chk=JID_10707.chk
%mem=8GB
%nprocshared=4
# B3LYP/6-311++G(d,p) empiricaldispersion=gd3bj scf=xqc pop=npa geom=check

CID_63738832_JID_10707_Energie_neutraal

0 1

--Link1--
%chk=JID_10707.chk
%mem=8GB
%nprocshared=4
# B3LYP/6-311++G(d,p) empiricaldispersion=gd3bj scf=xqc pop=npa geom=check

CID_63738832_JID_10707_Energie_kation

1 2

--Link1--
%chk=JID_10707.chk
%mem=8GB
%nprocshared=4
# B3LYP/6-311++G(d,p) empiricaldispersion=gd3bj scf=xqc pop=npa geom=check

CID_63738832_JID_10707_Energie_anion

-1 2
