%chk=JID_6264.chk
%mem=8GB
%nprocshared=4
# opt freq B3LYP/6-31G(d) empiricaldispersion=gd3bj scf=xqc

CID_117310839_JID_6264_neutraal

0 1
C          1.30600        0.17900       -0.14100
C          0.75292       -1.17906        0.24806
C         -0.72812       -1.09000       -0.09726
N         -1.06000        0.30226        0.26968
C          0.10720        1.11621       -0.10350
C         -1.05927       -1.35600       -1.58188
C         -0.84018       -2.78665       -1.99307
C         -1.67107       -3.81642       -1.59657
C         -1.46409       -5.13381       -1.95382
C         -0.40116       -5.50856       -2.74488
C          0.46291       -4.49841       -3.17565
C          0.24629       -3.15426       -2.80504
O         -2.42547       -5.98683       -1.43595
C         -3.25458       -5.10478       -0.73318
O         -4.25022       -5.45133       -0.11420
N         -2.80180       -3.81110       -0.82972
H          2.09923        0.49514        0.54381
H          1.72615        0.14363       -1.15268
H          0.87202       -1.31995        1.33033
H          1.28191       -1.99716       -0.24769
H         -1.30313       -1.77529        0.53554
H         -1.15396        0.34565        1.28662
H          0.25395        1.92806        0.61647
H         -0.05465        1.57417       -1.08545
H         -2.11083       -1.10333       -1.77502
H         -0.47757       -0.69558       -2.23786
H         -0.24385       -6.54411       -3.02374
H          1.31432       -4.74972       -3.80509
H          0.94395       -2.39666       -3.15941
H         -3.26391       -3.02278       -0.40729

--Link1--
%chk=JID_6264.chk
%mem=8GB
%nprocshared=4
# B3LYP/6-311++G(d,p) empiricaldispersion=gd3bj scf=xqc pop=npa geom=check

CID_117310839_JID_6264_Energie_neutraal

0 1

--Link1--
%chk=JID_6264.chk
%mem=8GB
%nprocshared=4
# B3LYP/6-311++G(d,p) empiricaldispersion=gd3bj scf=xqc pop=npa geom=check

CID_117310839_JID_6264_Energie_kation

1 2

--Link1--
%chk=JID_6264.chk
%mem=8GB
%nprocshared=4
# B3LYP/6-311++G(d,p) empiricaldispersion=gd3bj scf=xqc pop=npa geom=check

CID_117310839_JID_6264_Energie_anion

-1 2
