%chk=JID_4894.chk
%mem=8GB
%nprocshared=4
# opt freq B3LYP/6-31G(d) empiricaldispersion=gd3bj scf=xqc

CID_136975370_JID_4894_neutraal

0 1
C          0.98247        0.07963        0.05790
C          0.51307        1.41443        0.60854
C          0.90146        2.59892       -0.24871
N          1.50034        2.45564       -1.38269
C          1.82798        3.56601       -2.12359
C          1.52903        4.80097       -1.67992
C          0.84547        4.96661       -0.39342
O          0.55819        6.07394        0.04480
N          0.56119        3.81484        0.26597
N          2.47348        3.45377       -3.34680
C          2.97507        2.29772       -4.01910
C          3.87015        1.35742       -3.18653
C          3.18418        0.18201       -3.91795
C          1.99095        1.12358       -4.19534
H          0.55269       -0.11353       -0.93060
H          0.67994       -0.73388        0.72450
H          2.07303        0.05410       -0.03812
H         -0.57894        1.40955        0.70506
H          0.92771        1.56553        1.61205
H          1.76106        5.70602       -2.22223
H          0.09106        3.90509        1.15395
H          2.74662        4.33429       -3.76936
H          3.44491        2.58841       -4.96861
H          4.94451        1.45186       -3.37006
H          3.70730        1.34772       -2.10466
H          2.96333       -0.69444       -3.30352
H          3.71059       -0.13885       -4.82418
H          1.18734        1.03270       -3.45901
H          1.55148        1.02949       -5.19287

--Link1--
%chk=JID_4894.chk
%mem=8GB
%nprocshared=4
# B3LYP/6-311++G(d,p) empiricaldispersion=gd3bj scf=xqc pop=npa geom=check

CID_136975370_JID_4894_Energie_neutraal

0 1

--Link1--
%chk=JID_4894.chk
%mem=8GB
%nprocshared=4
# B3LYP/6-311++G(d,p) empiricaldispersion=gd3bj scf=xqc pop=npa geom=check

CID_136975370_JID_4894_Energie_kation

1 2

--Link1--
%chk=JID_4894.chk
%mem=8GB
%nprocshared=4
# B3LYP/6-311++G(d,p) empiricaldispersion=gd3bj scf=xqc pop=npa geom=check

CID_136975370_JID_4894_Energie_anion

-1 2
