%chk=JID_7854.chk
%mem=8GB
%nprocshared=4
# opt freq B3LYP/6-31G(d) empiricaldispersion=gd3bj scf=xqc

CID_145536002_JID_7854_neutraal

0 1
C          0.94095       -0.07356        0.03320
C          1.10990        0.06396        1.54915
C          0.43916       -1.08745        2.30542
C         -1.08786       -1.04928        2.20251
C         -1.69118        0.33242        2.39178
C         -0.90622        1.42893        2.33463
C          0.57159        1.40953        2.05815
C         -3.06837        0.52660        2.71447
C         -3.91419       -0.07593        3.62400
C         -5.19981        0.51974        3.49826
C         -5.11542        1.46398        2.47756
N         -3.82138        1.43521        2.00762
C         -6.20528        2.24639        2.08208
C         -7.41685        2.05820        2.75754
C         -7.54449        1.11284        3.78111
C         -6.43050        0.34516        4.16192
C         -8.84401        0.96073        4.51668
H         -0.10485        0.01489       -0.27704
H          1.31647       -1.04284       -0.31137
H          1.50805        0.70586       -0.48715
H          2.18779        0.02808        1.75410
H          0.80762       -2.05342        1.94008
H          0.72431       -1.02777        3.36436
H         -1.40152       -1.43064        1.22263
H         -1.49639       -1.73949        2.95084
H         -1.31644        2.41590        2.54130
H          1.08245        1.66604        2.99504
H          0.81442        2.20505        1.34370
H         -3.63418       -0.85082        4.32499
H         -3.47493        2.00669        1.25100
H         -6.12060        2.97956        1.28703
H         -8.27282        2.66684        2.47178
H         -6.50901       -0.38008        4.96692
H         -8.99947       -0.07995        4.81996
H         -8.84470        1.59475        5.40874
H         -9.69062        1.24397        3.88255

--Link1--
%chk=JID_7854.chk
%mem=8GB
%nprocshared=4
# B3LYP/6-311++G(d,p) empiricaldispersion=gd3bj scf=xqc pop=npa geom=check

CID_145536002_JID_7854_Energie_neutraal

0 1

--Link1--
%chk=JID_7854.chk
%mem=8GB
%nprocshared=4
# B3LYP/6-311++G(d,p) empiricaldispersion=gd3bj scf=xqc pop=npa geom=check

CID_145536002_JID_7854_Energie_kation

1 2

--Link1--
%chk=JID_7854.chk
%mem=8GB
%nprocshared=4
# B3LYP/6-311++G(d,p) empiricaldispersion=gd3bj scf=xqc pop=npa geom=check

CID_145536002_JID_7854_Energie_anion

-1 2
