%chk=JID_10055.chk
%mem=8GB
%nprocshared=4
# opt freq B3LYP/6-31G(d) empiricaldispersion=gd3bj scf=xqc

CID_3337033_JID_10055_neutraal

0 1
C         -2.08400       -0.70700        0.00200
C         -1.99303        0.64313        0.35072
C         -0.78089        1.34016        0.26554
C          0.32940        0.61824       -0.18611
C          0.26336       -0.72569       -0.53985
C         -0.95735       -1.40863       -0.44441
N          1.49446       -1.15728       -0.95508
N          2.33492       -0.13410       -0.89030
N          1.64623        0.92787       -0.41103
C          2.30744        2.22713       -0.30035
C          2.86337        2.45969        1.08961
C          4.02855        1.79985        1.52490
C          4.53306        2.03356        2.81234
C          3.88261        2.91685        3.68193
C          2.72533        3.56918        3.25765
C          2.22052        3.34365        1.97372
N          5.75801        1.35228        3.25222
O          6.14964        1.56226        4.40925
O          6.32928        0.60961        2.44145
O          3.36756        2.33375       -1.26056
H         -3.03946       -1.22170        0.07851
H         -2.88505        1.16399        0.69550
H         -0.72299        2.38824        0.53747
H         -1.02117       -2.45638       -0.71784
H          1.56751        2.99126       -0.56201
H          4.53933        1.11325        0.84928
H          4.26411        3.10900        4.68288
H          2.21791        4.26046        3.92782
H          1.32111        3.87593        1.66785
H          3.47114        1.44077       -1.64720

--Link1--
%chk=JID_10055.chk
%mem=8GB
%nprocshared=4
# B3LYP/6-311++G(d,p) empiricaldispersion=gd3bj scf=xqc pop=npa geom=check

CID_3337033_JID_10055_Energie_neutraal

0 1

--Link1--
%chk=JID_10055.chk
%mem=8GB
%nprocshared=4
# B3LYP/6-311++G(d,p) empiricaldispersion=gd3bj scf=xqc pop=npa geom=check

CID_3337033_JID_10055_Energie_kation

1 2

--Link1--
%chk=JID_10055.chk
%mem=8GB
%nprocshared=4
# B3LYP/6-311++G(d,p) empiricaldispersion=gd3bj scf=xqc pop=npa geom=check

CID_3337033_JID_10055_Energie_anion

-1 2
