%chk=JID_6434.chk
%mem=8GB
%nprocshared=4
# opt freq B3LYP/6-31G(d) empiricaldispersion=gd3bj scf=xqc

CID_137916377_JID_6434_neutraal

0 1
C          0.96497        0.06607        0.06639
C          1.11405       -1.41150       -0.24881
C          1.72213       -2.16165        0.91447
O          1.02602       -2.82746        1.67989
N          3.05876       -2.06436        1.14944
C          4.09151       -1.53701        0.28486
C          5.07118       -0.79549        1.13369
C          4.97720        0.50132        1.60423
C          6.10300        0.88612        2.39408
C          7.01630       -0.14147        2.49683
S          6.52053       -1.54384        1.65063
C          6.23144        2.21367        3.00074
C          5.35485        3.27413        2.92580
O          5.83151        4.33934        3.62236
C          7.02273        3.96019        4.15121
C          7.31527        2.66218        3.79920
H          0.36044        0.21267        0.96778
H          0.47261        0.58307       -0.76300
H          1.93234        0.54572        0.23785
H          0.12787       -1.84587       -0.45102
H          1.70928       -1.56805       -1.15340
H          3.36135       -2.61602        1.94369
H          4.55150       -2.38638       -0.23136
H          3.67656       -0.87448       -0.47806
H          4.12614        1.13555        1.38760
H          7.95806       -0.15113        3.02712
H          4.39980        3.43036        2.44480
H          7.53105        4.70975        4.74170
H          8.20319        2.11984        4.09003

--Link1--
%chk=JID_6434.chk
%mem=8GB
%nprocshared=4
# B3LYP/6-311++G(d,p) empiricaldispersion=gd3bj scf=xqc pop=npa geom=check

CID_137916377_JID_6434_Energie_neutraal

0 1

--Link1--
%chk=JID_6434.chk
%mem=8GB
%nprocshared=4
# B3LYP/6-311++G(d,p) empiricaldispersion=gd3bj scf=xqc pop=npa geom=check

CID_137916377_JID_6434_Energie_kation

1 2

--Link1--
%chk=JID_6434.chk
%mem=8GB
%nprocshared=4
# B3LYP/6-311++G(d,p) empiricaldispersion=gd3bj scf=xqc pop=npa geom=check

CID_137916377_JID_6434_Energie_anion

-1 2
