%chk=JID_8311.chk
%mem=8GB
%nprocshared=4
# opt freq B3LYP/6-31G(d) empiricaldispersion=gd3bj scf=xqc

CID_104963853_JID_8311_neutraal

0 1
C          0.90309        0.00727        0.02357
C          0.53880       -1.46888        0.33109
C          1.31219       -1.85369        1.60722
C         -0.98171       -1.56207        0.59282
N         -1.83082       -1.26312       -0.55827
C          1.03421       -2.33227       -0.84760
O          1.67169       -1.82863       -1.78183
N          0.89632       -3.68050       -0.90941
C          0.14532       -4.64763       -0.13299
C         -1.21717       -5.00305       -0.76465
C         -1.11917       -5.46639       -2.22859
C         -0.45468       -6.83258       -2.37153
C         -1.17112       -7.89041       -1.52634
C         -1.31415       -7.46359       -0.06220
C         -1.94205       -6.07440        0.06978
C         -0.47516       -9.22755       -1.62244
O         -0.99696      -10.28208       -1.94535
O          0.82631       -9.18774       -1.28150
H          0.54418        0.67838        0.81230
H          0.47465        0.34657       -0.92599
H          1.98937        0.14011       -0.05087
H          1.11117       -1.14435        2.41863
H          1.04625       -2.84584        1.97847
H          2.39348       -1.85747        1.42650
H         -1.25840       -2.54976        0.96758
H         -1.24966       -0.86200        1.39494
H         -2.80778       -1.23678       -0.26838
H         -1.62054       -0.33604       -0.92718
H          1.32229       -4.03260       -1.75912
H          0.78701       -5.53132       -0.06146
H         -0.00213       -4.28366        0.88318
H         -1.83664       -4.09917       -0.75642
H         -2.13325       -5.52430       -2.64615
H         -0.58625       -4.72896       -2.83860
H          0.60238       -6.75739       -2.08990
H         -0.46569       -7.13421       -3.42624
H         -2.17727       -8.03052       -1.94490
H         -0.33777       -7.47649        0.43711
H         -1.93315       -8.19310        0.47501
H         -1.96651       -5.78109        1.12605
H         -2.98765       -6.13070       -0.26005
H          1.12797      -10.11443       -1.38983

--Link1--
%chk=JID_8311.chk
%mem=8GB
%nprocshared=4
# B3LYP/6-311++G(d,p) empiricaldispersion=gd3bj scf=xqc pop=npa geom=check

CID_104963853_JID_8311_Energie_neutraal

0 1

--Link1--
%chk=JID_8311.chk
%mem=8GB
%nprocshared=4
# B3LYP/6-311++G(d,p) empiricaldispersion=gd3bj scf=xqc pop=npa geom=check

CID_104963853_JID_8311_Energie_kation

1 2

--Link1--
%chk=JID_8311.chk
%mem=8GB
%nprocshared=4
# B3LYP/6-311++G(d,p) empiricaldispersion=gd3bj scf=xqc pop=npa geom=check

CID_104963853_JID_8311_Energie_anion

-1 2
