%chk=JID_10468.chk
%mem=8GB
%nprocshared=4
# opt freq B3LYP/6-31G(d) empiricaldispersion=gd3bj scf=xqc

CID_115394583_JID_10468_neutraal

0 1
C         -3.46200       -0.74800        0.02700
C         -2.05183       -0.27588        0.21659
N         -1.11127       -1.21475        0.45798
C          0.15620       -0.82752        0.68017
C          1.10285       -1.80365        0.96211
C          2.43948       -1.48802        1.21659
C          2.84833       -0.16277        1.19456
C          1.91924        0.83593        0.90975
C          0.56326        0.52165        0.63924
C         -0.42899        1.48047        0.32220
C         -1.75285        1.07363        0.14473
C         -0.12176        2.90500        0.23267
N         -0.06792        3.70302        1.28336
N          0.22026        4.96842        0.86106
C          0.33916        4.92794       -0.44169
N          0.15645        3.64906       -0.90337
C          0.20265        3.23810       -2.31938
C          0.98419        1.92454       -2.52886
C         -1.22941        3.08062       -2.86364
C          0.91541        4.29839       -3.20153
H         -3.82715       -0.45974       -0.96366
H         -3.52260       -1.83805        0.10857
H         -4.11262       -0.31223        0.79156
H          0.78710       -2.84425        0.99194
H          3.15056       -2.27861        1.44106
H          3.88233        0.09705        1.40600
H          2.25621        1.87138        0.91514
H         -2.53820        1.80138       -0.03679
H          0.55248        5.78467       -1.06392
H          0.43791        1.05246       -2.16172
H          1.16395        1.73600       -3.59423
H          1.95945        1.95838       -2.03074
H         -1.81269        3.99724       -2.71746
H         -1.22207        2.85679       -3.93673
H         -1.76868        2.26775       -2.37066
H          0.36409        5.24531       -3.22722
H          1.92927        4.50309       -2.83793
H          1.00012        3.95925       -4.24104

--Link1--
%chk=JID_10468.chk
%mem=8GB
%nprocshared=4
# B3LYP/6-311++G(d,p) empiricaldispersion=gd3bj scf=xqc pop=npa geom=check

CID_115394583_JID_10468_Energie_neutraal

0 1

--Link1--
%chk=JID_10468.chk
%mem=8GB
%nprocshared=4
# B3LYP/6-311++G(d,p) empiricaldispersion=gd3bj scf=xqc pop=npa geom=check

CID_115394583_JID_10468_Energie_kation

1 2

--Link1--
%chk=JID_10468.chk
%mem=8GB
%nprocshared=4
# B3LYP/6-311++G(d,p) empiricaldispersion=gd3bj scf=xqc pop=npa geom=check

CID_115394583_JID_10468_Energie_anion

-1 2
