%chk=JID_4104.chk
%mem=8GB
%nprocshared=4
# opt freq B3LYP/6-31G(d) empiricaldispersion=gd3bj scf=xqc

CID_114663183_JID_4104_neutraal

0 1
C          0.96537       -0.03956       -0.08507
C          0.16297       -0.35303       -1.33526
N          0.66544       -1.52460       -2.03158
C          1.62509       -1.58674       -3.01731
C          1.70940       -2.92742       -3.34078
C          0.78189       -3.58005       -2.50991
N          0.13499       -2.72665       -1.71495
O          2.55674       -3.38783       -4.29014
C          2.52709       -4.80023       -4.45255
C          2.34188       -0.39730       -3.55578
C          1.92467       -0.05224       -4.97778
C          3.08624        0.78041       -5.48474
C          4.28392        0.31911       -4.66645
N          3.78914       -0.63427       -3.66625
H          0.93810       -0.87651        0.62075
H          0.55782        0.84354        0.41641
H          2.01495        0.15818       -0.32644
H         -0.88432       -0.54652       -1.07549
H          0.16867        0.49073       -2.03189
H          0.53919       -4.63150       -2.44556
H          2.82484       -5.31059       -3.53012
H          1.53951       -5.13875       -4.78415
H          3.25034       -5.06406       -5.23013
H          2.20591        0.47675       -2.90916
H          1.81247       -0.94682       -5.60358
H          0.97866        0.49800       -5.01431
H          3.23931        0.64429       -6.55982
H          2.89424        1.84393       -5.30074
H          5.04059       -0.15491       -5.30062
H          4.75922        1.17115       -4.16867
H          3.90540       -1.57970       -4.04314

--Link1--
%chk=JID_4104.chk
%mem=8GB
%nprocshared=4
# B3LYP/6-311++G(d,p) empiricaldispersion=gd3bj scf=xqc pop=npa geom=check

CID_114663183_JID_4104_Energie_neutraal

0 1

--Link1--
%chk=JID_4104.chk
%mem=8GB
%nprocshared=4
# B3LYP/6-311++G(d,p) empiricaldispersion=gd3bj scf=xqc pop=npa geom=check

CID_114663183_JID_4104_Energie_kation

1 2

--Link1--
%chk=JID_4104.chk
%mem=8GB
%nprocshared=4
# B3LYP/6-311++G(d,p) empiricaldispersion=gd3bj scf=xqc pop=npa geom=check

CID_114663183_JID_4104_Energie_anion

-1 2
