%chk=JID_9020.chk
%mem=8GB
%nprocshared=4
# opt freq B3LYP/6-31G(d) empiricaldispersion=gd3bj scf=xqc

CID_79192591_JID_9020_neutraal

0 1
C          1.07138       -0.03520        0.06054
C          1.91282       -0.02549        1.32129
C          2.59629        1.31205        1.52187
O          2.24673        2.09362        2.40895
N          3.63992        1.65714        0.68361
C          4.68278        0.72208        0.49687
C          5.64617        0.58731        1.49795
C          6.61912       -0.40299        1.42092
C          6.71679       -1.15478        0.24666
C          5.78592       -0.98265       -0.78557
C          4.75086       -0.05635       -0.65242
N          7.52762       -0.66550        2.45871
C          7.44654       -0.46486        3.81077
O          8.46143       -0.64572        4.48967
C          6.12721       -0.12598        4.48783
C          6.12788        1.28904        5.07046
C          4.79260        2.03350        4.96179
C          3.58409        1.28134        5.50284
O          2.41191        2.06008        5.29641
H          0.31821        0.75940        0.08965
H          0.55296       -0.99331       -0.04344
H          1.67914        0.12142       -0.83489
H          1.27033       -0.20671        2.19106
H          2.64879       -0.83451        1.30735
H          3.97830        2.54261        1.05464
H          5.62480        1.27056        2.33399
H          7.49074       -1.91051        0.13314
H          5.85943       -1.58686       -1.68706
H          4.02290        0.06181       -1.44981
H          8.39088       -1.13380        2.20442
H          5.28350       -0.31520        3.82334
H          5.99811       -0.84996        5.30344
H          6.41466        1.23115        6.12819
H          6.89620        1.90214        4.58279
H          4.87872        2.99125        5.49141
H          4.60349        2.31233        3.92028
H          3.43622        0.31882        5.00581
H          3.68974        1.10098        6.57681
H          2.29087        2.17065        4.32819

--Link1--
%chk=JID_9020.chk
%mem=8GB
%nprocshared=4
# B3LYP/6-311++G(d,p) empiricaldispersion=gd3bj scf=xqc pop=npa geom=check

CID_79192591_JID_9020_Energie_neutraal

0 1

--Link1--
%chk=JID_9020.chk
%mem=8GB
%nprocshared=4
# B3LYP/6-311++G(d,p) empiricaldispersion=gd3bj scf=xqc pop=npa geom=check

CID_79192591_JID_9020_Energie_kation

1 2

--Link1--
%chk=JID_9020.chk
%mem=8GB
%nprocshared=4
# B3LYP/6-311++G(d,p) empiricaldispersion=gd3bj scf=xqc pop=npa geom=check

CID_79192591_JID_9020_Energie_anion

-1 2
