%chk=JID_8923.chk
%mem=8GB
%nprocshared=4
# opt freq B3LYP/6-31G(d) empiricaldispersion=gd3bj scf=xqc

CID_151598081_JID_8923_neutraal

0 1
C          0.65300       -1.21900        0.25200
C         -0.88104       -1.28653        0.22666
N         -1.51211       -0.04586        0.69237
C         -0.91587        1.20534        0.21737
C          0.62535        1.19451        0.18573
N          1.24101       -0.02908       -0.35004
C          1.51596        0.03858       -1.78930
C          1.71238       -1.30540       -2.53522
N          0.84282       -0.80679       -3.61998
C          0.30855        0.24029       -2.72689
C          1.55156       -0.28817       -4.80263
C          2.73968        0.69285       -4.70313
N          3.98166       -0.02585       -4.38390
N          4.66873        0.43371       -3.45442
N          5.29216        0.84636       -2.59580
C         -2.76501        0.02602        1.25414
O         -3.33146        1.07032        1.55929
N         -3.38986       -1.15264        1.49090
H          0.95096       -1.20639        1.31069
H          1.08685       -2.15083       -0.11853
H         -1.19716       -2.12231        0.85976
H         -1.25144       -1.48837       -0.78323
H         -1.32172        1.39214       -0.78233
H         -1.24902        2.03881        0.84667
H          0.97866        1.30351        1.21986
H          0.99059        2.08564       -0.33972
H          2.32024        0.75324       -1.99111
H          2.74004       -1.56671       -2.79867
H          1.27695       -2.20833       -2.09807
H         -0.67378       -0.04137       -2.33990
H          0.21184        1.24339       -3.15700
H          1.87858       -1.15878       -5.38604
H          0.78870        0.20093       -5.42312
H          2.88045        1.15563       -5.68766
H          2.53133        1.51800       -4.01354
H         -3.31387       -1.86721        0.78448
H         -4.33241       -1.02165        1.83687

--Link1--
%chk=JID_8923.chk
%mem=8GB
%nprocshared=4
# B3LYP/6-311++G(d,p) empiricaldispersion=gd3bj scf=xqc pop=npa geom=check

CID_151598081_JID_8923_Energie_neutraal

0 1

--Link1--
%chk=JID_8923.chk
%mem=8GB
%nprocshared=4
# B3LYP/6-311++G(d,p) empiricaldispersion=gd3bj scf=xqc pop=npa geom=check

CID_151598081_JID_8923_Energie_kation

1 2

--Link1--
%chk=JID_8923.chk
%mem=8GB
%nprocshared=4
# B3LYP/6-311++G(d,p) empiricaldispersion=gd3bj scf=xqc pop=npa geom=check

CID_151598081_JID_8923_Energie_anion

-1 2
