%chk=JID_5837.chk
%mem=8GB
%nprocshared=4
# opt freq B3LYP/6-31G(d) empiricaldispersion=gd3bj scf=xqc

CID_117107932_JID_5837_neutraal

0 1
C          0.95392        0.03219       -0.08271
C          0.36375        1.39543       -0.48459
C          0.76979        1.68012       -1.94334
C         -1.18299        1.39632       -0.38658
C         -1.76990        1.12446        0.98197
C         -2.05134        2.18660        1.85958
C         -2.62179        1.94985        3.11167
C         -2.78854        0.62245        3.52264
C         -2.54078       -0.44308        2.66923
C         -2.04420       -0.18967        1.39147
O         -3.16591        0.35359        4.81013
N         -2.85101        3.00710        4.01679
C          0.98241        2.48424        0.38170
O          1.91927        2.36181        1.15428
O          0.44657        3.70591        0.18158
H          0.49219       -0.78361       -0.64975
H          0.81949       -0.17190        0.98495
H          2.03339       -0.00232       -0.27347
H          0.41186        0.89221       -2.61547
H          0.35728        2.63234       -2.29629
H          1.85946        1.74291       -2.04702
H         -1.58276        2.35606       -0.74295
H         -1.59110        0.65179       -1.08492
H         -1.84535        3.20760        1.54864
H         -2.70366       -1.46180        3.00677
H         -1.84399       -1.02831        0.72838
H         -2.86438        1.13362        5.31300
H         -3.70509        2.85031        4.54980
H         -2.89901        3.90742        3.54598
H          0.97442        4.28014        0.77670

--Link1--
%chk=JID_5837.chk
%mem=8GB
%nprocshared=4
# B3LYP/6-311++G(d,p) empiricaldispersion=gd3bj scf=xqc pop=npa geom=check

CID_117107932_JID_5837_Energie_neutraal

0 1

--Link1--
%chk=JID_5837.chk
%mem=8GB
%nprocshared=4
# B3LYP/6-311++G(d,p) empiricaldispersion=gd3bj scf=xqc pop=npa geom=check

CID_117107932_JID_5837_Energie_kation

1 2

--Link1--
%chk=JID_5837.chk
%mem=8GB
%nprocshared=4
# B3LYP/6-311++G(d,p) empiricaldispersion=gd3bj scf=xqc pop=npa geom=check

CID_117107932_JID_5837_Energie_anion

-1 2
