%chk=JID_4409.chk
%mem=8GB
%nprocshared=4
# opt freq B3LYP/6-31G(d) empiricaldispersion=gd3bj scf=xqc

CID_145188010_JID_4409_neutraal

0 1
C          1.03559       -0.09213        0.01568
C          0.54376       -0.46432        1.41364
C          1.11975        0.48793        2.46109
C         -0.95399       -0.45944        1.45972
N         -1.74679        0.59016        1.38996
C         -3.03422        0.10691        1.46462
C         -3.01727       -1.27166        1.57026
N         -1.68852       -1.61384        1.56882
C         -4.11047       -2.27207        1.63523
C         -4.36726       -2.81171        0.25234
O         -4.08564       -3.96129       -0.08089
C         -4.20480        1.03505        1.39300
N         -4.91214        0.78487        0.12946
C         -6.03608        1.70048       -0.01212
H          0.71528        0.91684       -0.26846
H          0.64396       -0.78751       -0.73530
H          2.12917       -0.12592       -0.03336
H          0.90642       -1.47464        1.64338
H          0.81562        1.52443        2.27537
H          0.77800        0.21711        3.46642
H          2.21441        0.45246        2.45739
H         -1.31095       -2.55141        1.61340
H         -3.84292       -3.10094        2.29935
H         -5.03931       -1.83167        2.01065
H         -4.81573       -2.10564       -0.46767
H         -4.86499        0.85080        2.24832
H         -3.85498        2.07283        1.44506
H         -4.24376        0.96321       -0.62327
H         -5.70846        2.74527       -0.01220
H         -6.54476        1.50780       -0.96176
H         -6.76777        1.55425        0.78909

--Link1--
%chk=JID_4409.chk
%mem=8GB
%nprocshared=4
# B3LYP/6-311++G(d,p) empiricaldispersion=gd3bj scf=xqc pop=npa geom=check

CID_145188010_JID_4409_Energie_neutraal

0 1

--Link1--
%chk=JID_4409.chk
%mem=8GB
%nprocshared=4
# B3LYP/6-311++G(d,p) empiricaldispersion=gd3bj scf=xqc pop=npa geom=check

CID_145188010_JID_4409_Energie_kation

1 2

--Link1--
%chk=JID_4409.chk
%mem=8GB
%nprocshared=4
# B3LYP/6-311++G(d,p) empiricaldispersion=gd3bj scf=xqc pop=npa geom=check

CID_145188010_JID_4409_Energie_anion

-1 2
