%chk=JID_10295.chk
%mem=8GB
%nprocshared=4
# opt freq B3LYP/6-31G(d) empiricaldispersion=gd3bj scf=xqc

CID_79065791_JID_10295_neutraal

0 1
C          1.03369       -0.06695       -0.06620
C          1.04589       -1.20172       -1.09075
C          1.46636       -2.65288       -0.60995
C          0.86157       -2.86705        0.80627
C          0.72358       -3.67414       -1.65449
C          1.06740       -3.42035       -3.15711
C          2.49997       -3.67243       -3.64120
C          2.96999       -5.12399       -3.61004
C          4.17184       -5.15281       -4.55087
C          3.98681       -3.97957       -5.51190
C          2.66304       -3.33086       -5.12623
N          0.81579       -5.11159       -1.30615
C         -0.21132       -5.94372       -1.93277
C         -0.07686       -7.37514       -1.43164
N          2.95212       -2.86015       -0.60920
C          3.79592       -1.71120       -0.22998
C          5.29688       -2.00165       -0.42141
O          5.71076       -3.14768        0.32694
C          4.94561       -4.28442       -0.08683
C          3.44158       -4.04640        0.13167
H          0.24664       -0.21700        0.67945
H          0.81427        0.87905       -0.57342
H          1.98030        0.05759        0.45970
H          0.02235       -1.24178       -1.48786
H          1.67066       -0.89925       -1.94062
H         -0.21562       -2.66293        0.80211
H          0.98628       -3.88599        1.18260
H          1.32399       -2.20404        1.54592
H         -0.34331       -3.42181       -1.55457
H          0.38098       -4.00718       -3.78083
H          0.80773       -2.38421       -3.40538
H          3.20393       -3.04482       -3.08614
H          3.24524       -5.46444       -2.60911
H          2.19169       -5.79401       -3.99422
H          4.23620       -6.10787       -5.08198
H          5.10302       -5.02739       -3.98634
H          3.98585       -4.30216       -6.55777
H          4.80996       -3.26624       -5.38808
H          1.84986       -3.76707       -5.71962
H          2.66951       -2.25129       -5.30664
H          0.74053       -5.22045       -0.29823
H         -1.21249       -5.57361       -1.68506
H         -0.10865       -5.95438       -3.02129
H         -0.21305       -7.43168       -0.34631
H         -0.83565       -8.01083       -1.89925
H          0.90740       -7.78876       -1.67678
H          3.62022       -1.45489        0.82148
H          3.58173       -0.83801       -0.85113
H          5.53679       -2.15420       -1.48106
H          5.88461       -1.14747       -0.06985
H          5.27480       -5.13873        0.51352
H          5.16669       -4.51155       -1.13663
H          3.27682       -3.90724        1.20734
H          2.93483       -4.96122       -0.17086

--Link1--
%chk=JID_10295.chk
%mem=8GB
%nprocshared=4
# B3LYP/6-311++G(d,p) empiricaldispersion=gd3bj scf=xqc pop=npa geom=check

CID_79065791_JID_10295_Energie_neutraal

0 1

--Link1--
%chk=JID_10295.chk
%mem=8GB
%nprocshared=4
# B3LYP/6-311++G(d,p) empiricaldispersion=gd3bj scf=xqc pop=npa geom=check

CID_79065791_JID_10295_Energie_kation

1 2

--Link1--
%chk=JID_10295.chk
%mem=8GB
%nprocshared=4
# B3LYP/6-311++G(d,p) empiricaldispersion=gd3bj scf=xqc pop=npa geom=check

CID_79065791_JID_10295_Energie_anion

-1 2
