%chk=JID_3279.chk
%mem=8GB
%nprocshared=4
# opt freq B3LYP/6-31G(d) empiricaldispersion=gd3bj scf=xqc

CID_123475160_JID_3279_neutraal

0 1
C          0.92048        0.05447        0.02663
C          0.66905        1.20707       -0.93264
C          1.04944        0.89246       -2.38167
C          0.32603       -0.30518       -3.01417
C         -1.22289       -0.25535       -2.99507
C         -1.72133        1.03477       -3.66889
C         -1.85761       -1.50638       -3.68379
C         -1.21665       -2.83903       -3.26555
C         -3.39172       -1.58931       -3.60151
C         -4.09390       -1.67990       -4.74993
C         -4.16339       -1.59665       -2.27759
C         -3.55853       -2.44198       -1.15683
C         -4.48218       -0.18724       -1.76830
H          0.26759       -0.79679       -0.18768
H          0.72260        0.37233        1.05537
H          1.96007       -0.28342       -0.02917
H         -0.38131        1.51077       -0.86913
H          1.25963        2.07021       -0.60225
H          0.88432        1.78731       -2.99294
H          2.12906        0.69904       -2.42690
H          0.66814       -0.39762       -4.05330
H          0.67290       -1.20820       -2.49992
H         -1.53786       -0.24355       -1.94747
H         -1.33130        1.11880       -4.68915
H         -2.81182        1.07520       -3.72761
H         -1.40694        1.92256       -3.11227
H         -1.60136       -1.40688       -4.75046
H         -1.07686       -2.91039       -2.18361
H         -1.81544       -3.69571       -3.59458
H         -0.22953       -2.95179       -3.72806
H         -5.17815       -1.74394       -4.75421
H         -3.60866       -1.68867       -5.72141
H         -5.13979       -2.06159       -2.48212
H         -2.62812       -2.01141       -0.77519
H         -4.25339       -2.50599       -0.31148
H         -3.36516       -3.46569       -1.49299
H         -4.92929        0.42849       -2.55606
H         -5.20251       -0.23554       -0.94362
H         -3.59577        0.32911       -1.39099

--Link1--
%chk=JID_3279.chk
%mem=8GB
%nprocshared=4
# B3LYP/6-311++G(d,p) empiricaldispersion=gd3bj scf=xqc pop=npa geom=check

CID_123475160_JID_3279_Energie_neutraal

0 1

--Link1--
%chk=JID_3279.chk
%mem=8GB
%nprocshared=4
# B3LYP/6-311++G(d,p) empiricaldispersion=gd3bj scf=xqc pop=npa geom=check

CID_123475160_JID_3279_Energie_kation

1 2

--Link1--
%chk=JID_3279.chk
%mem=8GB
%nprocshared=4
# B3LYP/6-311++G(d,p) empiricaldispersion=gd3bj scf=xqc pop=npa geom=check

CID_123475160_JID_3279_Energie_anion

-1 2
