%chk=JID_8481.chk
%mem=8GB
%nprocshared=4
# opt freq B3LYP/6-31G(d) empiricaldispersion=gd3bj scf=xqc

CID_105085810_JID_8481_neutraal

0 1
C          2.26000        1.82000        0.03500
C          1.09562        0.87442        0.02167
C         -0.21002        1.36060       -0.04973
C         -1.31537        0.49273       -0.03627
C         -1.11034       -0.90472        0.09010
C          0.21543       -1.39984        0.16490
C          1.29646       -0.50166        0.13634
C          0.52902       -2.87014        0.27106
C         -2.29824       -1.84801        0.17407
C         -3.04303       -1.76666        1.49867
O         -4.16784       -1.27065        1.56189
C         -2.37527       -2.30986        2.64798
C         -1.57172       -1.71786        3.60593
N         -1.09429       -2.60196        4.56969
N         -1.54125       -3.83269        4.38017
S         -2.54832       -3.95959        3.05138
C         -1.16490       -0.29450        3.69853
C         -2.68857        1.11233       -0.11011
H          2.05039        2.70533       -0.57452
H          2.47201        2.13741        1.06061
H          3.15534        1.34553       -0.38029
H         -0.37067        2.43564       -0.12176
H          2.31499       -0.88198        0.20447
H          0.09994       -3.29076        1.18392
H          0.14269       -3.40480       -0.60235
H          1.60866       -3.05182        0.30888
H         -3.00017       -1.62558       -0.63850
H         -2.01419       -2.89111        0.00203
H         -1.08655        0.01370        4.74597
H         -0.18916       -0.14830        3.22612
H         -1.89114        0.36288        3.21141
H         -3.14159        1.14457        0.88474
H         -2.63942        2.13930       -0.48915
H         -3.33776        0.56218       -0.79679

--Link1--
%chk=JID_8481.chk
%mem=8GB
%nprocshared=4
# B3LYP/6-311++G(d,p) empiricaldispersion=gd3bj scf=xqc pop=npa geom=check

CID_105085810_JID_8481_Energie_neutraal

0 1

--Link1--
%chk=JID_8481.chk
%mem=8GB
%nprocshared=4
# B3LYP/6-311++G(d,p) empiricaldispersion=gd3bj scf=xqc pop=npa geom=check

CID_105085810_JID_8481_Energie_kation

1 2

--Link1--
%chk=JID_8481.chk
%mem=8GB
%nprocshared=4
# B3LYP/6-311++G(d,p) empiricaldispersion=gd3bj scf=xqc pop=npa geom=check

CID_105085810_JID_8481_Energie_anion

-1 2
