%chk=JID_10930.chk
%mem=8GB
%nprocshared=4
# opt freq B3LYP/6-31G(d) empiricaldispersion=gd3bj scf=xqc

CID_140095031_JID_10930_neutraal

0 1
C          1.96800       -1.54200        0.38900
C          0.56684       -2.09549        0.15221
C         -0.47495       -1.01337        0.22795
C         -1.80371       -1.35478        0.51999
C         -2.79467       -0.37262        0.57018
C         -2.47327        0.95962        0.32029
C         -1.15953        1.31201        0.01470
C         -0.16291        0.32962       -0.03706
C          1.22680        0.72994       -0.38932
O          1.49754        1.90932       -0.60343
C          2.27227       -0.35253       -0.52027
C          2.51371       -0.80470       -1.94144
O          3.56304       -1.32755       -2.30097
O          1.37294       -0.64537       -2.71125
C          1.35471       -1.03166       -4.06098
C          1.94747       -2.20187       -4.51449
C          1.80316       -2.53635       -5.85900
C          1.05602       -1.71133       -6.69148
C          0.47471       -0.58213       -6.14022
N          0.59770       -0.23197       -4.84230
H          2.70371       -2.34179        0.24204
H          2.05226       -1.22030        1.43596
H          0.50569       -2.57833       -0.83016
H          0.36368       -2.86331        0.90849
H         -2.07745       -2.39093        0.70978
H         -3.82146       -0.64819        0.79925
H         -3.24600        1.72367        0.35405
H         -0.91780        2.35278       -0.19312
H          3.21268        0.09947       -0.17553
H          2.51052       -2.85251       -3.85632
H          2.26815       -3.43641       -6.25132
H          0.92470       -1.94496       -7.74205
H         -0.12711        0.09030       -6.74500

--Link1--
%chk=JID_10930.chk
%mem=8GB
%nprocshared=4
# B3LYP/6-311++G(d,p) empiricaldispersion=gd3bj scf=xqc pop=npa geom=check

CID_140095031_JID_10930_Energie_neutraal

0 1

--Link1--
%chk=JID_10930.chk
%mem=8GB
%nprocshared=4
# B3LYP/6-311++G(d,p) empiricaldispersion=gd3bj scf=xqc pop=npa geom=check

CID_140095031_JID_10930_Energie_kation

1 2

--Link1--
%chk=JID_10930.chk
%mem=8GB
%nprocshared=4
# B3LYP/6-311++G(d,p) empiricaldispersion=gd3bj scf=xqc pop=npa geom=check

CID_140095031_JID_10930_Energie_anion

-1 2
