%chk=JID_7701.chk
%mem=8GB
%nprocshared=4
# opt freq B3LYP/6-31G(d) empiricaldispersion=gd3bj scf=xqc

CID_115239898_JID_7701_neutraal

0 1
C          2.62500       -0.32100        0.00300
C          1.13846       -0.19020       -0.07024
C          0.21130       -1.22273        0.02117
S         -1.40150       -0.64941       -0.16026
C         -0.88442        0.96544       -0.31825
C          0.48463        1.07404       -0.25965
C          0.44048       -2.70336        0.22063
N         -0.05394       -3.21241        1.51219
C         -0.00944       -4.66780        1.54217
C          0.53372       -2.57235        2.69878
C          2.04529       -2.78997        2.98400
C          2.34362       -4.02608        3.85635
C          1.92650       -3.85495        5.31665
C          2.51405       -2.58758        5.93278
C          2.20241       -1.35282        5.09198
C          2.65764       -1.53876        3.64822
O          2.00169       -2.41290        7.24871
H          3.05754       -0.21612       -0.99736
H          3.04571        0.46227        0.64245
H          2.94288       -1.28279        0.40915
H         -1.60654        1.75840       -0.45374
H          1.00224        2.02150       -0.35187
H         -0.08675       -3.22069       -0.59375
H          1.49856       -2.94997        0.08169
H          1.00115       -5.05734        1.38149
H         -0.39263       -5.05382        2.49296
H         -0.65455       -5.08432        0.76001
H          0.32799       -1.49700        2.63671
H         -0.05370       -2.89085        3.56846
H          2.56855       -2.92810        2.03178
H          3.42519       -4.21467        3.82753
H          1.87207       -4.92494        3.45192
H          2.25135       -4.72615        5.89886
H          0.83344       -3.84288        5.40384
H          3.60099       -2.69934        6.02222
H          1.12811       -1.13266        5.12838
H          2.69615       -0.47662        5.52954
H          3.75172       -1.62771        3.62969
H          2.41430       -0.64077        3.06877
H          1.03815       -2.29694        7.18392

--Link1--
%chk=JID_7701.chk
%mem=8GB
%nprocshared=4
# B3LYP/6-311++G(d,p) empiricaldispersion=gd3bj scf=xqc pop=npa geom=check

CID_115239898_JID_7701_Energie_neutraal

0 1

--Link1--
%chk=JID_7701.chk
%mem=8GB
%nprocshared=4
# B3LYP/6-311++G(d,p) empiricaldispersion=gd3bj scf=xqc pop=npa geom=check

CID_115239898_JID_7701_Energie_kation

1 2

--Link1--
%chk=JID_7701.chk
%mem=8GB
%nprocshared=4
# B3LYP/6-311++G(d,p) empiricaldispersion=gd3bj scf=xqc pop=npa geom=check

CID_115239898_JID_7701_Energie_anion

-1 2
