%chk=JID_10785.chk
%mem=8GB
%nprocshared=4
# opt freq B3LYP/6-31G(d) empiricaldispersion=gd3bj scf=xqc

CID_103381902_JID_10785_neutraal

0 1
C          0.93977       -0.00568       -0.07962
C          0.91024       -1.41391       -0.66604
C          2.22685       -2.13914       -0.39591
N         -0.20798       -2.16066       -0.09727
C         -0.83293       -3.26629       -0.63013
O         -1.50190       -3.98134        0.11631
C         -0.64155       -3.58816       -2.02966
C         -0.99596       -2.78843       -3.12075
S         -0.40619       -3.61560       -4.53297
N          0.12110       -4.97209       -3.77083
C         -0.07229       -4.83595       -2.46902
N          0.27273       -5.81902       -1.60741
N         -1.66458       -1.58241       -3.18510
C         -1.44663       -0.68570       -4.31957
C         -2.77462       -1.25533       -2.28093
C         -4.13305       -1.86772       -2.64066
C         -4.64880       -1.62371       -4.05541
C         -5.86184       -2.54549       -4.15573
C         -5.59433       -3.69778       -3.18445
C         -4.25750       -3.38434       -2.51362
H          1.07136       -0.02874        1.00792
H          0.00035        0.51840       -0.28744
H          1.75768        0.58089       -0.51059
H          0.78153       -1.33014       -1.74747
H          2.40037       -2.25760        0.67949
H          2.22473       -3.13985       -0.84017
H          3.07127       -1.58535       -0.81922
H         -0.33791       -2.11036        0.90524
H          0.43750       -6.72941       -2.02469
H         -0.22535       -5.88017       -0.72111
H         -1.90660        0.29430       -4.15251
H         -0.37538       -0.50792       -4.46871
H         -1.86666       -1.09430       -5.24392
H         -2.53694       -1.51851       -1.24792
H         -2.89488       -0.16408       -2.25591
H         -4.85963       -1.42485       -1.94222
H         -4.91238       -0.57691       -4.23297
H         -3.91628       -1.92758       -4.80924
H         -6.01239       -2.90048       -5.18015
H         -6.77089       -2.01161       -3.85519
H         -5.56238       -4.66360       -3.69901
H         -6.39549       -3.74926       -2.43830
H         -3.46467       -3.90525       -3.05735
H         -4.23387       -3.72085       -1.47276

--Link1--
%chk=JID_10785.chk
%mem=8GB
%nprocshared=4
# B3LYP/6-311++G(d,p) empiricaldispersion=gd3bj scf=xqc pop=npa geom=check

CID_103381902_JID_10785_Energie_neutraal

0 1

--Link1--
%chk=JID_10785.chk
%mem=8GB
%nprocshared=4
# B3LYP/6-311++G(d,p) empiricaldispersion=gd3bj scf=xqc pop=npa geom=check

CID_103381902_JID_10785_Energie_kation

1 2

--Link1--
%chk=JID_10785.chk
%mem=8GB
%nprocshared=4
# B3LYP/6-311++G(d,p) empiricaldispersion=gd3bj scf=xqc pop=npa geom=check

CID_103381902_JID_10785_Energie_anion

-1 2
