%chk=JID_3128.chk
%mem=8GB
%nprocshared=4
# opt freq B3LYP/6-31G(d) empiricaldispersion=gd3bj scf=xqc

CID_12333395_JID_3128_neutraal

0 1
C          0.93664        0.01356        0.07617
C          0.11585       -0.77844        1.09482
C         -0.27864       -2.12650        0.55193
C          0.27869       -3.26588        1.00743
N          1.20265       -3.18158        2.02559
C          1.52127       -2.04715        2.70951
O          2.31406       -2.04882        3.64412
N          0.87437       -0.91750        2.32656
C         -0.01988       -4.65932        0.52832
C         -1.24505       -2.14446       -0.57334
O         -1.18207       -2.89781       -1.53192
O         -2.18646       -1.18613       -0.38142
C         -3.16326       -1.11652       -1.42165
H          1.23054        0.98489        0.48991
H          0.36822        0.20104       -0.84086
H          1.85701       -0.51625       -0.19626
H         -0.77080       -0.19863        1.37416
H          1.65709       -4.01903        2.37021
H          1.12930       -0.09154        2.85078
H          0.71132       -4.96480       -0.22673
H          0.03045       -5.37319        1.35868
H         -1.02516       -4.75478        0.10875
H         -2.68765       -0.88414       -2.37972
H         -3.72414       -2.05430       -1.48299
H         -3.86077       -0.31048       -1.17773

--Link1--
%chk=JID_3128.chk
%mem=8GB
%nprocshared=4
# B3LYP/6-311++G(d,p) empiricaldispersion=gd3bj scf=xqc pop=npa geom=check

CID_12333395_JID_3128_Energie_neutraal

0 1

--Link1--
%chk=JID_3128.chk
%mem=8GB
%nprocshared=4
# B3LYP/6-311++G(d,p) empiricaldispersion=gd3bj scf=xqc pop=npa geom=check

CID_12333395_JID_3128_Energie_kation

1 2

--Link1--
%chk=JID_3128.chk
%mem=8GB
%nprocshared=4
# B3LYP/6-311++G(d,p) empiricaldispersion=gd3bj scf=xqc pop=npa geom=check

CID_12333395_JID_3128_Energie_anion

-1 2
