%chk=JID_8422.chk
%mem=8GB
%nprocshared=4
# opt freq B3LYP/6-31G(d) empiricaldispersion=gd3bj scf=xqc

CID_68061219_JID_8422_neutraal

0 1
C          1.07475       -0.01326       -0.06509
C          0.85473       -0.11868        1.43737
C          1.27502        1.14490        2.17946
C          0.34698        2.29686        1.88676
O         -0.84246        2.31675        2.17014
O          1.01150        3.29641        1.24471
C          0.20613        4.44375        0.90647
C         -0.64418        4.17117       -0.32746
O          0.19605        4.39644       -1.47940
C          1.34435        5.17093       -1.05862
C          1.13032        5.53159        0.40555
O          0.48638        6.82626        0.44950
C          0.42277        7.34509       -0.89615
C          1.43520        6.54708       -1.69756
O          1.35614        6.58673       -3.11283
N         -0.00833        6.40179       -3.56896
O         -0.22327        7.32749       -4.65881
O         -0.09353        5.06714       -4.12239
H          0.46255        0.78096       -0.50344
H          0.80249       -0.95471       -0.55266
H          2.12466        0.19554       -0.29405
H         -0.20072       -0.34243        1.63154
H          1.43887       -0.96409        1.81902
H          1.25165        0.97732        3.26226
H          2.30639        1.41614        1.92620
H         -0.39268        4.76002        1.76787
H         -1.03179        3.15103       -0.38529
H         -1.48145        4.87378       -0.39470
H          2.23070        4.55508       -1.23810
H          2.07287        5.60332        0.95795
H         -0.60722        7.23491       -1.24853
H          0.65596        8.41415       -0.88474
H          2.42799        6.94641       -1.44853
H         -1.09595        7.68075       -4.41876
H         -0.21170        4.55568       -3.29553

--Link1--
%chk=JID_8422.chk
%mem=8GB
%nprocshared=4
# B3LYP/6-311++G(d,p) empiricaldispersion=gd3bj scf=xqc pop=npa geom=check

CID_68061219_JID_8422_Energie_neutraal

0 1

--Link1--
%chk=JID_8422.chk
%mem=8GB
%nprocshared=4
# B3LYP/6-311++G(d,p) empiricaldispersion=gd3bj scf=xqc pop=npa geom=check

CID_68061219_JID_8422_Energie_kation

1 2

--Link1--
%chk=JID_8422.chk
%mem=8GB
%nprocshared=4
# B3LYP/6-311++G(d,p) empiricaldispersion=gd3bj scf=xqc pop=npa geom=check

CID_68061219_JID_8422_Energie_anion

-1 2
