%chk=JID_8464.chk
%mem=8GB
%nprocshared=4
# opt freq B3LYP/6-31G(d) empiricaldispersion=gd3bj scf=xqc

CID_138754737_JID_8464_neutraal

0 1
C          1.00898       -0.04530       -0.08870
N          0.10101        0.65333       -0.99092
C         -1.19708       -0.01619       -1.03030
C         -0.01553        2.09172       -0.69935
C         -0.54688        2.55582        0.68070
N          0.45495        2.62873        1.75409
C          1.57216        3.53958        1.54548
C          0.32378        1.79661        2.86224
O         -0.62571        1.01708        2.98595
C          1.37717        1.86585        3.96421
C          2.71201        1.26215        3.59483
C          3.89175        2.01199        3.72105
C          5.12569        1.47502        3.34208
C          5.21108        0.10811        3.00948
C          4.03729       -0.62608        2.83383
C          2.79828       -0.06090        3.14405
N          6.46075       -0.45176        2.65615
N          6.30850        2.23463        3.49706
H          0.59212       -0.16690        0.91351
H          1.96891        0.47693       -0.01462
H          1.22882       -1.04577       -0.47840
H         -1.68734       -0.04917       -0.05184
H         -1.86880        0.48258       -1.73780
H         -1.08204       -1.04646       -1.38583
H          0.95678        2.55839       -0.89887
H         -0.68248        2.51864       -1.46083
H         -0.93717        3.57593        0.56989
H         -1.40336        1.94776        0.98599
H          1.95127        3.93437        2.48847
H          2.37153        3.00285        1.02738
H          1.24777        4.38880        0.93639
H          1.47643        2.90380        4.29999
H          0.98983        1.31971        4.83463
H          3.84713        3.03294        4.09103
H          4.07867       -1.65351        2.48378
H          1.89970       -0.66719        3.04071
H          7.18776       -0.04543        3.24291
H          6.46044       -1.46433        2.73407
H          6.14090        3.23275        3.42376
H          6.99460        1.92990        2.80785

--Link1--
%chk=JID_8464.chk
%mem=8GB
%nprocshared=4
# B3LYP/6-311++G(d,p) empiricaldispersion=gd3bj scf=xqc pop=npa geom=check

CID_138754737_JID_8464_Energie_neutraal

0 1

--Link1--
%chk=JID_8464.chk
%mem=8GB
%nprocshared=4
# B3LYP/6-311++G(d,p) empiricaldispersion=gd3bj scf=xqc pop=npa geom=check

CID_138754737_JID_8464_Energie_kation

1 2

--Link1--
%chk=JID_8464.chk
%mem=8GB
%nprocshared=4
# B3LYP/6-311++G(d,p) empiricaldispersion=gd3bj scf=xqc pop=npa geom=check

CID_138754737_JID_8464_Energie_anion

-1 2
