%chk=JID_5898.chk
%mem=8GB
%nprocshared=4
# opt freq B3LYP/6-31G(d) empiricaldispersion=gd3bj scf=xqc

CID_149417279_JID_5898_neutraal

0 1
C          1.00546       -0.06548        0.07539
C          0.63759        1.12528       -0.76116
O          0.97371        1.23806       -1.93651
C         -0.09585        2.24569       -0.04836
C          0.79853        3.26399        0.65538
C          0.06816        3.66138       -0.58565
N         -1.35187        1.92327        0.59037
C         -2.46321        1.33613        0.05223
O         -3.48303        1.19317        0.72025
C         -2.37621        0.81559       -1.32901
C         -2.25059       -0.51482       -1.47878
C         -2.16447       -1.17224       -2.82444
C         -1.95094       -0.17708       -3.96790
C         -2.82240        1.06532       -3.79469
C         -2.52133        1.77574       -2.47058
H          1.09100       -0.94579       -0.56773
H          0.24121       -0.26851        0.82898
H          1.96246        0.12216        0.56828
H          0.46841        3.69236        1.59452
H          1.87498        3.14627        0.58534
H          0.64383        3.80227       -1.49469
H         -0.76706        4.34596       -0.49196
H         -1.49987        2.24029        1.54132
H         -2.21680       -1.16724       -0.60892
H         -3.09067       -1.73446       -2.99278
H         -1.34326       -1.89796       -2.82301
H         -2.17243       -0.66315       -4.92465
H         -0.89546        0.12214       -4.00085
H         -2.65927        1.75734       -4.62856
H         -3.88008        0.77399       -3.82389
H         -1.59555        2.35026       -2.58129
H         -3.32245        2.49455       -2.26300

--Link1--
%chk=JID_5898.chk
%mem=8GB
%nprocshared=4
# B3LYP/6-311++G(d,p) empiricaldispersion=gd3bj scf=xqc pop=npa geom=check

CID_149417279_JID_5898_Energie_neutraal

0 1

--Link1--
%chk=JID_5898.chk
%mem=8GB
%nprocshared=4
# B3LYP/6-311++G(d,p) empiricaldispersion=gd3bj scf=xqc pop=npa geom=check

CID_149417279_JID_5898_Energie_kation

1 2

--Link1--
%chk=JID_5898.chk
%mem=8GB
%nprocshared=4
# B3LYP/6-311++G(d,p) empiricaldispersion=gd3bj scf=xqc pop=npa geom=check

CID_149417279_JID_5898_Energie_anion

-1 2
