%chk=JID_2281.chk
%mem=8GB
%nprocshared=4
# opt freq B3LYP/6-31G(d) empiricaldispersion=gd3bj scf=xqc

CID_150864264_JID_2281_neutraal

0 1
C          0.95412        0.08715       -0.01732
C          0.40874       -1.14907       -0.67398
C          0.93828       -2.36405       -0.44297
C          0.42859       -3.62299       -1.09025
C         -0.29524       -3.36632       -2.43030
C         -1.34533       -2.24569       -2.22756
C         -0.80802       -0.96973       -1.55267
C         -0.66398        0.00074       -2.72177
N         -1.83805       -0.29831       -3.54520
C         -2.00586       -1.75393       -3.52212
N          0.73245       -3.08999       -3.45560
C          0.84159       -4.16040       -4.43513
H          0.16984        0.59042        0.55729
H          1.33775        0.78341       -0.76956
H          1.77447       -0.14125        0.67135
H          1.78544       -2.47699        0.22876
H          1.26740       -4.31357       -1.24490
H         -0.25303       -4.11996       -0.38851
H         -0.84629       -4.27787       -2.69943
H         -2.12925       -2.65778       -1.57476
H         -1.61113       -0.58709       -0.90295
H         -0.68454        1.04406       -2.39151
H          0.26167       -0.16025       -3.28486
H         -1.71635        0.04522       -4.49598
H         -3.07366       -1.99676       -3.52985
H         -1.57105       -2.20064       -4.42116
H          0.55742       -2.20746       -3.92780
H         -0.08645       -4.27579       -5.00446
H          1.64267       -3.92672       -5.14305
H          1.09137       -5.11322       -3.95760

--Link1--
%chk=JID_2281.chk
%mem=8GB
%nprocshared=4
# B3LYP/6-311++G(d,p) empiricaldispersion=gd3bj scf=xqc pop=npa geom=check

CID_150864264_JID_2281_Energie_neutraal

0 1

--Link1--
%chk=JID_2281.chk
%mem=8GB
%nprocshared=4
# B3LYP/6-311++G(d,p) empiricaldispersion=gd3bj scf=xqc pop=npa geom=check

CID_150864264_JID_2281_Energie_kation

1 2

--Link1--
%chk=JID_2281.chk
%mem=8GB
%nprocshared=4
# B3LYP/6-311++G(d,p) empiricaldispersion=gd3bj scf=xqc pop=npa geom=check

CID_150864264_JID_2281_Energie_anion

-1 2
