%chk=JID_7321.chk
%mem=8GB
%nprocshared=4
# opt freq B3LYP/6-31G(d) empiricaldispersion=gd3bj scf=xqc

CID_79303980_JID_7321_neutraal

0 1
C          1.06315       -0.00226        0.07750
N          0.55592       -0.21454       -1.25676
C          0.23266       -1.41956       -1.81750
O         -0.17941       -1.46381       -2.97440
C          0.34031       -2.64352       -0.93461
C          0.66965       -3.94053       -1.69630
C          1.99756       -3.73029       -2.50904
N          3.19073       -3.68973       -1.64686
N          0.80530       -5.11267       -0.75618
C          1.04295       -6.35970       -1.50153
C         -0.35589       -5.30437        0.15180
C         -0.11367       -4.95008        1.65427
C          1.25152       -5.41393        2.19236
C          1.91406       -4.15017        2.71582
C          0.73653       -3.27546        3.09050
N         -0.18610       -3.50868        1.97953
C         -1.53747       -3.05919        2.29050
H          2.06007       -0.44310        0.15883
H          0.38989       -0.45894        0.80737
H          1.12332        1.07379        0.25709
H          0.47592        0.57384       -1.88822
H          1.09439       -2.48893       -0.15981
H         -0.64200       -2.71485       -0.46019
H         -0.13805       -4.14240       -2.41296
H          2.12370       -4.54488       -3.23004
H          1.96998       -2.81846       -3.11252
H          3.17509       -2.82516       -1.10869
H          3.05050       -4.42218       -0.94227
H          1.98532       -6.33580       -2.05530
H          1.14459       -7.20600       -0.81145
H          0.22817       -6.57859       -2.20044
H         -1.25612       -4.80592       -0.22851
H         -0.63964       -6.36707        0.15945
H         -0.87960       -5.48762        2.23256
H          1.88832       -5.92114        1.46307
H          1.09432       -6.10894        3.02688
H          2.50588       -3.67880        1.92120
H          2.57596       -4.34892        3.56362
H          1.02413       -2.22226        3.16752
H          0.31423       -3.60024        4.04983
H         -2.20956       -3.23133        1.44333
H         -1.95491       -3.56695        3.16723
H         -1.54255       -1.98080        2.48413

--Link1--
%chk=JID_7321.chk
%mem=8GB
%nprocshared=4
# B3LYP/6-311++G(d,p) empiricaldispersion=gd3bj scf=xqc pop=npa geom=check

CID_79303980_JID_7321_Energie_neutraal

0 1

--Link1--
%chk=JID_7321.chk
%mem=8GB
%nprocshared=4
# B3LYP/6-311++G(d,p) empiricaldispersion=gd3bj scf=xqc pop=npa geom=check

CID_79303980_JID_7321_Energie_kation

1 2

--Link1--
%chk=JID_7321.chk
%mem=8GB
%nprocshared=4
# B3LYP/6-311++G(d,p) empiricaldispersion=gd3bj scf=xqc pop=npa geom=check

CID_79303980_JID_7321_Energie_anion

-1 2
