%chk=JID_2093.chk
%mem=8GB
%nprocshared=4
# opt freq B3LYP/6-31G(d) empiricaldispersion=gd3bj scf=xqc

CID_130725654_JID_2093_neutraal

0 1
C          1.06635        0.00851       -0.07433
C          0.27221        1.13934       -0.71509
C         -0.97409        1.47931        0.09798
C         -1.31933        2.90009       -0.32670
C         -0.04553        3.45283       -0.95902
N          0.96423        2.42728       -0.71018
C          2.17269        2.54075       -1.54489
C          2.16045        2.18885       -3.05824
O          1.88538        0.80247       -3.30582
C          1.21494        0.81502       -4.56381
C          0.42081        2.09285       -4.51420
O          1.27121        3.01173       -3.82731
H          0.44791       -0.89122        0.01311
H          1.40913        0.27645        0.93137
H          1.94651       -0.24973       -0.67129
H         -0.04248        0.85011       -1.72372
H         -1.79827        0.78526       -0.09590
H         -0.76593        1.45963        1.17556
H         -1.64179        3.49590        0.53350
H         -2.13457        2.89361       -1.05910
H          0.24001        4.40522       -0.50051
H         -0.22896        3.63216       -2.02122
H          2.53219        3.57372       -1.44938
H          2.94168        1.91534       -1.07450
H          3.16883        2.38275       -3.44522
H          0.59406       -0.07628       -4.68262
H          1.97062        0.83956       -5.35663
H         -0.49278        1.97195       -3.92294
H          0.15660        2.47661       -5.50279

--Link1--
%chk=JID_2093.chk
%mem=8GB
%nprocshared=4
# B3LYP/6-311++G(d,p) empiricaldispersion=gd3bj scf=xqc pop=npa geom=check

CID_130725654_JID_2093_Energie_neutraal

0 1

--Link1--
%chk=JID_2093.chk
%mem=8GB
%nprocshared=4
# B3LYP/6-311++G(d,p) empiricaldispersion=gd3bj scf=xqc pop=npa geom=check

CID_130725654_JID_2093_Energie_kation

1 2

--Link1--
%chk=JID_2093.chk
%mem=8GB
%nprocshared=4
# B3LYP/6-311++G(d,p) empiricaldispersion=gd3bj scf=xqc pop=npa geom=check

CID_130725654_JID_2093_Energie_anion

-1 2
