%chk=JID_5841.chk
%mem=8GB
%nprocshared=4
# opt freq B3LYP/6-31G(d) empiricaldispersion=gd3bj scf=xqc

CID_115250223_JID_5841_neutraal

0 1
C          2.19400       -0.06300        0.00100
C          0.73172       -0.24174       -0.07122
C         -0.10353       -1.32880        0.06390
C         -1.41904       -0.84179       -0.13473
C         -1.30601        0.50966       -0.37163
O          0.00180        0.87816       -0.33211
N         -2.23972        1.44583       -0.63873
C         -1.93647        2.86357       -0.45559
C         -2.79871        3.73528       -1.38427
C         -4.32631        3.66318       -1.12742
C         -4.75123        4.11321        0.27224
C         -5.11432        4.44697       -2.18443
C         -2.28082        5.15722       -1.36058
O         -2.22065        5.90932       -2.32031
O         -1.92995        5.60212       -0.14011
H          2.57763        0.34153       -0.94063
H          2.45568        0.62914        0.80716
H          2.69725       -1.01568        0.19266
H          0.19815       -2.34577        0.27034
H         -2.33775       -1.40862       -0.11462
H         -3.20349        1.19141       -0.44686
H         -2.08266        3.12570        0.59840
H         -0.88203        3.06860       -0.68302
H         -2.61551        3.37438       -2.40726
H         -4.63437        2.61549       -1.23535
H         -4.51635        5.16727        0.44913
H         -5.83305        3.99301        0.39917
H         -4.26808        3.51580        1.05046
H         -4.82545        4.13898       -3.19483
H         -6.18885        4.26261       -2.07683
H         -4.95420        5.52617       -2.09457
H         -1.65476        6.53081       -0.29716

--Link1--
%chk=JID_5841.chk
%mem=8GB
%nprocshared=4
# B3LYP/6-311++G(d,p) empiricaldispersion=gd3bj scf=xqc pop=npa geom=check

CID_115250223_JID_5841_Energie_neutraal

0 1

--Link1--
%chk=JID_5841.chk
%mem=8GB
%nprocshared=4
# B3LYP/6-311++G(d,p) empiricaldispersion=gd3bj scf=xqc pop=npa geom=check

CID_115250223_JID_5841_Energie_kation

1 2

--Link1--
%chk=JID_5841.chk
%mem=8GB
%nprocshared=4
# B3LYP/6-311++G(d,p) empiricaldispersion=gd3bj scf=xqc pop=npa geom=check

CID_115250223_JID_5841_Energie_anion

-1 2
