%chk=JID_5768.chk
%mem=8GB
%nprocshared=4
# opt freq B3LYP/6-31G(d) empiricaldispersion=gd3bj scf=xqc

CID_151532214_JID_5768_neutraal

0 1
C         -1.23000        1.25600        0.19100
C         -0.81084       -0.09251       -0.43798
C         -1.65488       -1.18817        0.25324
C          0.62270       -0.31368       -0.10471
N          1.73506       -0.49228        0.17756
C         -1.01308       -0.15710       -1.96312
C         -1.39987        0.95957       -2.72815
C         -1.56983        0.88370       -4.11847
C         -1.34418       -0.32412       -4.77060
C         -0.95089       -1.44394       -4.04034
C         -0.78324       -1.36116       -2.65663
O         -1.93164        2.06273       -4.71075
C         -2.29929        2.02915       -6.08948
O         -1.20843        1.82837       -6.98681
C         -0.26487        2.88844       -6.92111
H         -2.28551        1.48028       -0.00290
H         -1.09212        1.24692        1.27975
H         -0.62722        2.08896       -0.19129
H         -2.71685       -1.08893       -0.00073
H         -1.33946       -2.19975       -0.02730
H         -1.56522       -1.12907        1.34522
H         -1.57548        1.92697       -2.26404
H         -1.44060       -0.42261       -5.84728
H         -0.75957       -2.38323       -4.55405
H         -0.45231       -2.25555       -2.13101
H         -3.05435        1.25372       -6.26729
H         -2.78331        2.98395       -6.32677
H         -0.74025        3.84459       -7.16013
H          0.20130        2.93440       -5.93252
H          0.51714        2.69567       -7.66072

--Link1--
%chk=JID_5768.chk
%mem=8GB
%nprocshared=4
# B3LYP/6-311++G(d,p) empiricaldispersion=gd3bj scf=xqc pop=npa geom=check

CID_151532214_JID_5768_Energie_neutraal

0 1

--Link1--
%chk=JID_5768.chk
%mem=8GB
%nprocshared=4
# B3LYP/6-311++G(d,p) empiricaldispersion=gd3bj scf=xqc pop=npa geom=check

CID_151532214_JID_5768_Energie_kation

1 2

--Link1--
%chk=JID_5768.chk
%mem=8GB
%nprocshared=4
# B3LYP/6-311++G(d,p) empiricaldispersion=gd3bj scf=xqc pop=npa geom=check

CID_151532214_JID_5768_Energie_anion

-1 2
