%chk=JID_6039.chk
%mem=8GB
%nprocshared=4
# opt freq B3LYP/6-31G(d) empiricaldispersion=gd3bj scf=xqc

CID_141941872_JID_6039_neutraal

0 1
C          0.98667       -0.04092       -0.09026
C          2.22600        0.76372        0.23012
C         -1.96382       -0.02393        2.35703
C         -1.80037       -0.62690        3.75895
C         -1.92593        0.40808        4.91150
C         -0.71563        1.34909        4.92829
C         -0.81329        2.68716        4.82123
C          0.61303        0.58764        5.08336
C          1.86441        1.48857        5.15559
C          3.14885        0.68424        5.31952
C          3.30650       -0.32893        4.19710
C          2.09690       -1.25300        4.11532
C          0.77044       -0.47947        3.95598
C         -0.47216       -1.37555        3.87001
C         -0.46398       -2.72072        3.90418
C         -3.30425        1.08516        4.90443
H          0.10509        0.60603       -0.11803
H          0.82443       -0.81711        0.66291
H          1.08684       -0.52708       -1.06530
H          2.40199        1.52069       -0.53994
H          2.11772        1.27241        1.19243
H          3.10406        0.11301        0.28083
H         -2.98041        0.35405        2.20932
H         -1.78928       -0.78185        1.58481
H         -1.27109        0.80368        2.17528
H         -2.62079       -1.34831        3.88377
H         -1.88519       -0.15216        5.85847
H          0.05207        3.34064        4.83500
H         -1.76579        3.19449        4.71178
H          0.55323        0.05682        6.04600
H          1.94619        2.09421        4.24349
H          1.78019        2.18286        6.00067
H          4.00954        1.36254        5.32708
H          3.13968        0.16774        6.28706
H          3.43622        0.19388        3.24195
H          4.21279       -0.92284        4.36107
H          2.24017       -1.93291        3.26634
H          2.06544       -1.86938        5.02329
H          0.83660        0.05638        2.99943
H          0.44679       -3.30284        3.98817
H         -1.38551       -3.29292        3.84279
H         -4.10116        0.33350        4.91865
H         -3.43347        1.71271        5.79333
H         -3.45573        1.71511        4.02217

--Link1--
%chk=JID_6039.chk
%mem=8GB
%nprocshared=4
# B3LYP/6-311++G(d,p) empiricaldispersion=gd3bj scf=xqc pop=npa geom=check

CID_141941872_JID_6039_Energie_neutraal

0 1

--Link1--
%chk=JID_6039.chk
%mem=8GB
%nprocshared=4
# B3LYP/6-311++G(d,p) empiricaldispersion=gd3bj scf=xqc pop=npa geom=check

CID_141941872_JID_6039_Energie_kation

1 2

--Link1--
%chk=JID_6039.chk
%mem=8GB
%nprocshared=4
# B3LYP/6-311++G(d,p) empiricaldispersion=gd3bj scf=xqc pop=npa geom=check

CID_141941872_JID_6039_Energie_anion

-1 2
