%chk=JID_7080.chk
%mem=8GB
%nprocshared=4
# opt freq B3LYP/6-31G(d) empiricaldispersion=gd3bj scf=xqc

CID_100643405_JID_7080_neutraal

0 1
C          0.94170       -0.05904        0.05581
C         -0.20961        0.97105       -0.02989
C         -1.11056        0.73036        1.23318
O         -2.00810       -0.11607        1.22442
N         -0.69253        1.33313        2.42633
C         -0.01567        2.62434        2.38034
C          0.96262        2.75394        1.21407
N          0.36896        2.35189       -0.05980
C         -0.40281        3.36375       -0.64878
O         -1.13808        4.10300       -0.00180
C         -0.17192        3.56149       -2.07099
C         -0.93902        4.38095       -2.87549
O         -0.48016        4.37822       -4.15268
C          0.60354        3.56246       -4.17916
C          0.84242        3.04250       -2.92887
C         -1.46983        1.05960        3.62227
C         -1.03656        0.61394       -1.28407
H          0.56049       -1.08507       -0.01056
H          1.48999        0.00423        1.00153
H          1.66068        0.08919       -0.75785
H          0.52837        2.76478        3.32119
H         -0.79255        3.39438        2.32844
H          1.84780        2.13334        1.38664
H          1.31404        3.79045        1.13956
H         -1.80604        5.00089       -2.68955
H          1.08856        3.46139       -5.14024
H          1.64743        2.37197       -2.66303
H         -1.79435        0.01518        3.64353
H         -0.85714        1.25458        4.50687
H         -2.35211        1.70681        3.62869
H         -0.43769        0.68182       -2.19683
H         -1.41755       -0.41335       -1.23441
H         -1.91134        1.26497       -1.39004

--Link1--
%chk=JID_7080.chk
%mem=8GB
%nprocshared=4
# B3LYP/6-311++G(d,p) empiricaldispersion=gd3bj scf=xqc pop=npa geom=check

CID_100643405_JID_7080_Energie_neutraal

0 1

--Link1--
%chk=JID_7080.chk
%mem=8GB
%nprocshared=4
# B3LYP/6-311++G(d,p) empiricaldispersion=gd3bj scf=xqc pop=npa geom=check

CID_100643405_JID_7080_Energie_kation

1 2

--Link1--
%chk=JID_7080.chk
%mem=8GB
%nprocshared=4
# B3LYP/6-311++G(d,p) empiricaldispersion=gd3bj scf=xqc pop=npa geom=check

CID_100643405_JID_7080_Energie_anion

-1 2
