%chk=JID_3576.chk
%mem=8GB
%nprocshared=4
# opt freq B3LYP/6-31G(d) empiricaldispersion=gd3bj scf=xqc

CID_84022858_JID_3576_neutraal

0 1
C          0.97407       -0.03875        0.08846
C          0.71829       -1.53252       -0.10787
C          1.26490       -2.39327        1.04904
N          2.57681       -3.02924        0.82757
C          2.87600       -3.96932        1.91950
C          4.34266       -4.33822        2.16387
C          5.11267       -3.27559        2.95867
N          5.48003       -2.05996        2.22182
C          4.32382       -1.35569        1.64563
C          3.68160       -2.13370        0.48006
C          6.23971       -1.15828        3.09186
C         -0.78219       -1.72029       -0.18481
O         -1.39827       -1.83021       -1.24081
H          0.48557        0.33020        0.99790
H          0.56365        0.53371       -0.75122
H          2.03725        0.19858        0.16273
H          1.13281       -1.86689       -1.06647
H          0.54802       -3.20464        1.23806
H          1.28891       -1.79466        1.96960
H          2.46553       -3.59838        2.86874
H          2.33233       -4.89640        1.69697
H          4.85714       -4.58672        1.22808
H          4.35333       -5.26058        2.76001
H          6.03957       -3.75392        3.30185
H          4.54417       -3.01941        3.86294
H          4.67616       -0.40636        1.22017
H          3.58529       -1.08985        2.41237
H          4.45425       -2.71445       -0.04244
H          3.36363       -1.42612       -0.29148
H          5.64218       -0.80326        3.93935
H          7.13271       -1.65842        3.48322
H          6.59425       -0.28679        2.53012
H         -1.32596       -1.67302        0.77529

--Link1--
%chk=JID_3576.chk
%mem=8GB
%nprocshared=4
# B3LYP/6-311++G(d,p) empiricaldispersion=gd3bj scf=xqc pop=npa geom=check

CID_84022858_JID_3576_Energie_neutraal

0 1

--Link1--
%chk=JID_3576.chk
%mem=8GB
%nprocshared=4
# B3LYP/6-311++G(d,p) empiricaldispersion=gd3bj scf=xqc pop=npa geom=check

CID_84022858_JID_3576_Energie_kation

1 2

--Link1--
%chk=JID_3576.chk
%mem=8GB
%nprocshared=4
# B3LYP/6-311++G(d,p) empiricaldispersion=gd3bj scf=xqc pop=npa geom=check

CID_84022858_JID_3576_Energie_anion

-1 2
