%chk=JID_732.chk
%mem=8GB
%nprocshared=4
# opt freq B3LYP/6-31G(d) empiricaldispersion=gd3bj scf=xqc

CID_139293870_JID_732_neutraal

0 1
C          1.07881        0.05295       -0.03140
C         -0.08712       -0.92832       -0.22039
C         -1.31478       -0.15727       -0.72963
O         -1.17926        0.17631       -2.10822
C         -1.16098       -0.98574       -2.93241
C          0.08032       -1.84838       -2.65528
C          0.21772       -2.17280       -1.12625
C          1.58877       -2.79900       -0.79501
C         -0.83361       -3.27055       -0.78402
C          1.30693       -1.18978       -3.30301
H          0.78970        0.84862        0.66557
H          1.37702        0.53970       -0.96039
H          1.95381       -0.43585        0.40602
H         -0.32590       -1.28873        0.79019
H         -2.23853       -0.72860       -0.58202
H         -1.44013        0.77818       -0.17318
H         -1.17289       -0.65177       -3.97582
H         -2.08638       -1.55349       -2.78115
H         -0.05569       -2.79510       -3.19698
H          1.64589       -3.08012        0.26303
H          1.75899       -3.70558       -1.38736
H          2.42204       -2.11960       -0.99550
H         -1.85973       -2.94680       -0.97907
H         -0.66070       -4.17839       -1.37394
H         -0.77652       -3.55401        0.27354
H          2.19893       -1.81567       -3.20965
H          1.13670       -1.05394       -4.37766
H          1.52589       -0.20474       -2.89015

--Link1--
%chk=JID_732.chk
%mem=8GB
%nprocshared=4
# B3LYP/6-311++G(d,p) empiricaldispersion=gd3bj scf=xqc pop=npa geom=check

CID_139293870_JID_732_Energie_neutraal

0 1

--Link1--
%chk=JID_732.chk
%mem=8GB
%nprocshared=4
# B3LYP/6-311++G(d,p) empiricaldispersion=gd3bj scf=xqc pop=npa geom=check

CID_139293870_JID_732_Energie_kation

1 2

--Link1--
%chk=JID_732.chk
%mem=8GB
%nprocshared=4
# B3LYP/6-311++G(d,p) empiricaldispersion=gd3bj scf=xqc pop=npa geom=check

CID_139293870_JID_732_Energie_anion

-1 2
