%chk=JID_7432.chk
%mem=8GB
%nprocshared=4
# opt freq B3LYP/6-31G(d) empiricaldispersion=gd3bj scf=xqc

CID_62614450_JID_7432_neutraal

0 1
C          0.96841       -0.04677        0.08255
C          0.54120       -0.27755        1.52564
C          0.76303        0.90464        2.48807
C         -0.02798        2.14620        2.08066
C          0.12180        3.23046        3.13715
C          1.58795        3.62095        3.40020
C          2.50119        2.39539        3.68462
C          2.24125        1.27142        2.64068
C          4.04055        2.66697        3.62894
N          4.75926        3.45351        4.63179
C          4.32389        3.25748        6.00902
C          5.25986        3.93707        7.00941
C          5.49540        5.40122        6.65556
C          5.99494        5.52094        5.22251
C          5.05409        4.82752        4.23676
O          4.29123        6.15452        6.79610
N          1.52162        4.57130        4.51037
H          0.41970        0.78173       -0.37379
H          0.76311       -0.94345       -0.51178
H          2.03969        0.15864        0.00612
H         -0.52346       -0.54292        1.53274
H          1.07803       -1.15348        1.91079
H          0.39791        0.57507        3.47114
H         -1.08936        1.89698        1.96541
H          0.31957        2.53497        1.11638
H         -0.34546        2.87712        4.06724
H         -0.44863        4.11285        2.81839
H          1.97552        4.14269        2.51602
H          2.24530        1.98259        4.66973
H          2.80127        0.37321        2.93165
H          2.64277        1.59289        1.67113
H          4.52903        1.68262        3.66668
H          4.28726        3.04325        2.62627
H          4.30953        2.18502        6.23996
H          3.30949        3.62496        6.17859
H          6.22045        3.40699        7.02786
H          4.82196        3.85704        8.01134
H          6.23311        5.83706        7.33821
H          6.08242        6.57710        4.94111
H          6.99521        5.07637        5.14549
H          5.55194        4.82861        3.25874
H          4.15091        5.42890        4.11537
H          3.99254        6.05906        7.71717
H          1.03738        5.41862        4.21722
H          2.45265        4.86508        4.79143

--Link1--
%chk=JID_7432.chk
%mem=8GB
%nprocshared=4
# B3LYP/6-311++G(d,p) empiricaldispersion=gd3bj scf=xqc pop=npa geom=check

CID_62614450_JID_7432_Energie_neutraal

0 1

--Link1--
%chk=JID_7432.chk
%mem=8GB
%nprocshared=4
# B3LYP/6-311++G(d,p) empiricaldispersion=gd3bj scf=xqc pop=npa geom=check

CID_62614450_JID_7432_Energie_kation

1 2

--Link1--
%chk=JID_7432.chk
%mem=8GB
%nprocshared=4
# B3LYP/6-311++G(d,p) empiricaldispersion=gd3bj scf=xqc pop=npa geom=check

CID_62614450_JID_7432_Energie_anion

-1 2
