%chk=JID_9055.chk
%mem=8GB
%nprocshared=4
# opt freq B3LYP/6-31G(d) empiricaldispersion=gd3bj scf=xqc

CID_152305222_JID_9055_neutraal

0 1
C         -0.72000        1.26100        0.22400
C          0.70717        1.09901       -0.28972
N          1.22686       -0.22544        0.05337
C          0.42832       -1.29783       -0.54364
C         -1.00719       -1.23600       -0.02818
C         -1.62091        0.14292       -0.31006
N         -2.98296        0.28220        0.19194
C         -4.01089        0.93493       -0.43287
C         -5.09320        0.83979        0.40963
C         -4.61912        0.11466        1.51656
N         -3.33364       -0.22061        1.39116
O          2.53902       -0.30215       -0.58641
C          3.53785       -0.57313        0.31837
O          3.40784       -0.74135        1.52704
C          4.89336       -0.58895       -0.35266
C          4.86101       -0.97739       -1.82530
N          4.47531        0.19125       -2.62883
N          4.00084       -0.05537       -3.75223
N          3.55620       -0.28526       -4.77580
H         -1.10919        2.24058       -0.07995
H         -0.71952        1.25398        1.32236
H          0.73207        1.26299       -1.37517
H          1.33775        1.86953        0.16910
H          0.85978       -2.26850       -0.27258
H          0.43564       -1.23312       -1.63955
H         -1.01069       -1.44888        1.04905
H         -1.60664       -2.02082       -0.50528
H         -1.69806        0.25477       -1.40100
H         -3.88633        1.40669       -1.39705
H         -6.08372        1.24056        0.25092
H         -5.15356       -0.18055        2.41030
H          5.35614        0.39359       -0.21111
H          5.49409       -1.33570        0.18039
H          5.86324       -1.29344       -2.13722
H          4.17694       -1.81937       -1.99094

--Link1--
%chk=JID_9055.chk
%mem=8GB
%nprocshared=4
# B3LYP/6-311++G(d,p) empiricaldispersion=gd3bj scf=xqc pop=npa geom=check

CID_152305222_JID_9055_Energie_neutraal

0 1

--Link1--
%chk=JID_9055.chk
%mem=8GB
%nprocshared=4
# B3LYP/6-311++G(d,p) empiricaldispersion=gd3bj scf=xqc pop=npa geom=check

CID_152305222_JID_9055_Energie_kation

1 2

--Link1--
%chk=JID_9055.chk
%mem=8GB
%nprocshared=4
# B3LYP/6-311++G(d,p) empiricaldispersion=gd3bj scf=xqc pop=npa geom=check

CID_152305222_JID_9055_Energie_anion

-1 2
