%chk=JID_4411.chk
%mem=8GB
%nprocshared=4
# opt freq B3LYP/6-31G(d) empiricaldispersion=gd3bj scf=xqc

CID_152995697_JID_4411_neutraal

0 1
C          1.01133        0.08319       -0.05432
C          0.53971       -1.18409       -0.77024
C          1.63478       -1.79165       -1.66565
C          2.65200       -2.71084       -0.96524
C          1.93584       -3.74105       -0.06637
C          0.87284       -3.17311        0.90458
C         -0.10713       -2.26685        0.11979
C         -1.20613       -1.70254        0.99724
N         -2.43061       -2.09466        0.85545
O         -3.22983       -1.42288        1.78698
C          1.42776       -2.57026        2.19980
C          2.90883       -4.68274        0.61819
O          2.92413       -5.89404        0.41966
C          3.79238       -1.92481       -0.31512
H          1.73953       -0.10648        0.73068
H          0.16741        0.61322        0.39903
H          1.47069        0.77656       -0.76780
H         -0.24837       -0.83231       -1.45344
H          1.12556       -2.39874       -2.42823
H          2.15315       -1.00285       -2.22490
H          3.14149       -3.28556       -1.76628
H          1.37595       -4.38829       -0.76122
H          0.28133       -4.03609        1.24902
H         -0.62218       -2.94371       -0.58182
H         -0.92632       -0.95528        1.76015
H         -4.11669       -1.78499        1.60067
H          0.61782       -2.27689        2.87529
H          2.02363       -3.30556        2.75012
H          2.05389       -1.69633        2.04143
H          3.61514       -4.22747        1.33197
H          4.60530       -2.59282       -0.01264
H          4.22091       -1.21252       -1.02919
H          3.48627       -1.36128        0.56312

--Link1--
%chk=JID_4411.chk
%mem=8GB
%nprocshared=4
# B3LYP/6-311++G(d,p) empiricaldispersion=gd3bj scf=xqc pop=npa geom=check

CID_152995697_JID_4411_Energie_neutraal

0 1

--Link1--
%chk=JID_4411.chk
%mem=8GB
%nprocshared=4
# B3LYP/6-311++G(d,p) empiricaldispersion=gd3bj scf=xqc pop=npa geom=check

CID_152995697_JID_4411_Energie_kation

1 2

--Link1--
%chk=JID_4411.chk
%mem=8GB
%nprocshared=4
# B3LYP/6-311++G(d,p) empiricaldispersion=gd3bj scf=xqc pop=npa geom=check

CID_152995697_JID_4411_Energie_anion

-1 2
