%chk=JID_155.chk
%mem=8GB
%nprocshared=4
# opt freq B3LYP/6-31G(d) empiricaldispersion=gd3bj scf=xqc

CID_148008788_JID_155_neutraal

0 1
C         -0.91600       -1.34300        0.27200
C          0.53953       -1.78534        0.12084
C          1.59436       -0.92490        0.84179
C          1.71328        0.49441        0.25506
C          0.49962        1.40683        0.43342
C         -0.67482        1.07290       -0.43551
C         -1.28727       -0.11671       -0.50532
N          1.32397       -0.87067        2.29133
C          1.82599       -2.02351        3.03436
C          2.51745       -0.68815        3.11322
H         -1.54609       -2.16170       -0.10034
H         -1.19396       -1.21392        1.32414
H          0.79421       -1.84231       -0.94609
H          0.61616       -2.81435        0.49751
H          2.56242       -1.41200        0.64876
H          2.57498        0.99063        0.72185
H          1.95910        0.41956       -0.81284
H          0.81520        2.42482        0.16875
H          0.18281        1.46085        1.48109
H         -1.07370        1.89169       -1.03204
H         -2.15567       -0.20992       -1.15537
H          1.22313       -2.33515        3.87858
H          2.31066       -2.82597        2.49247
H          3.47738       -0.57297        2.62559
H          2.38211       -0.09717        4.01082

--Link1--
%chk=JID_155.chk
%mem=8GB
%nprocshared=4
# B3LYP/6-311++G(d,p) empiricaldispersion=gd3bj scf=xqc pop=npa geom=check

CID_148008788_JID_155_Energie_neutraal

0 1

--Link1--
%chk=JID_155.chk
%mem=8GB
%nprocshared=4
# B3LYP/6-311++G(d,p) empiricaldispersion=gd3bj scf=xqc pop=npa geom=check

CID_148008788_JID_155_Energie_kation

1 2

--Link1--
%chk=JID_155.chk
%mem=8GB
%nprocshared=4
# B3LYP/6-311++G(d,p) empiricaldispersion=gd3bj scf=xqc pop=npa geom=check

CID_148008788_JID_155_Energie_anion

-1 2
