%chk=JID_879.chk
%mem=8GB
%nprocshared=4
# opt freq B3LYP/6-31G(d) empiricaldispersion=gd3bj scf=xqc

CID_88783455_JID_879_neutraal

0 1
C          0.92874        0.01697       -0.06807
C          0.74777       -1.41493       -0.53608
O          1.38303       -2.33426        0.36665
C          2.71060       -2.52991        0.51075
N          3.69987       -2.31297       -0.26640
C          3.60332       -1.84384       -1.62414
O          2.94188       -2.68649       -2.56476
C          3.62461       -3.91967       -2.74518
O          2.89993       -3.07881        1.74064
C          4.24020       -3.44240        2.08291
H          0.52418        0.14157        0.94198
H          0.41522        0.71131       -0.73905
H          1.98596        0.29271       -0.01795
H         -0.32070       -1.65654       -0.51303
H          1.06303       -1.56801       -1.56628
H          3.13940       -0.85463       -1.66596
H          4.62197       -1.67010       -1.99404
H          4.64975       -3.74816       -3.08766
H          3.62753       -4.50219       -1.81921
H          3.09555       -4.49385       -3.51069
H          4.62772       -4.18767        1.38100
H          4.88362       -2.55769        2.11100
H          4.22371       -3.88825        3.08140

--Link1--
%chk=JID_879.chk
%mem=8GB
%nprocshared=4
# B3LYP/6-311++G(d,p) empiricaldispersion=gd3bj scf=xqc pop=npa geom=check

CID_88783455_JID_879_Energie_neutraal

0 1

--Link1--
%chk=JID_879.chk
%mem=8GB
%nprocshared=4
# B3LYP/6-311++G(d,p) empiricaldispersion=gd3bj scf=xqc pop=npa geom=check

CID_88783455_JID_879_Energie_kation

1 2

--Link1--
%chk=JID_879.chk
%mem=8GB
%nprocshared=4
# B3LYP/6-311++G(d,p) empiricaldispersion=gd3bj scf=xqc pop=npa geom=check

CID_88783455_JID_879_Energie_anion

-1 2
