%chk=JID_58.chk
%mem=8GB
%nprocshared=4
# opt freq B3LYP/6-31G(d) empiricaldispersion=gd3bj scf=xqc

CID_14366577_JID_58_neutraal

0 1
C          0.94738       -0.03336       -0.07822
C          0.38911       -0.63340       -1.37828
C          0.99749       -2.02331       -1.60086
C         -1.16896       -0.73796       -1.31980
N         -1.81137        0.58635       -1.38555
C         -3.27423        0.51063       -1.39085
C         -3.92794        0.03995       -0.08456
C         -3.58953        0.86081        1.16171
N         -4.03711        2.24405        1.05935
N          0.79200        0.25345       -2.48770
H          0.65093       -0.63510        0.78850
H          0.59344        0.98935        0.09206
H          2.04336        0.00110       -0.09552
H          0.73024       -2.70289       -0.78369
H          0.64086       -2.47214       -2.53520
H          2.09173       -1.97859       -1.65106
H         -1.51723       -1.33752       -2.17066
H         -1.45569       -1.26382       -0.40192
H         -1.49455        1.16118       -0.60715
H         -3.65505        1.50726       -1.64214
H         -3.60323       -0.13961       -2.21101
H         -5.01665        0.04518       -0.22762
H         -3.65984       -1.00641        0.10460
H         -4.08515        0.40279        2.02497
H         -2.51380        0.83432        1.36475
H         -3.81435        2.73826        1.92320
H         -3.52709        2.72606        0.32004
H          0.51829       -0.18138       -3.36941
H          0.17949        1.07529       -2.43394

--Link1--
%chk=JID_58.chk
%mem=8GB
%nprocshared=4
# B3LYP/6-311++G(d,p) empiricaldispersion=gd3bj scf=xqc pop=npa geom=check

CID_14366577_JID_58_Energie_neutraal

0 1

--Link1--
%chk=JID_58.chk
%mem=8GB
%nprocshared=4
# B3LYP/6-311++G(d,p) empiricaldispersion=gd3bj scf=xqc pop=npa geom=check

CID_14366577_JID_58_Energie_kation

1 2

--Link1--
%chk=JID_58.chk
%mem=8GB
%nprocshared=4
# B3LYP/6-311++G(d,p) empiricaldispersion=gd3bj scf=xqc pop=npa geom=check

CID_14366577_JID_58_Energie_anion

-1 2
