%chk=JID_8022.chk
%mem=8GB
%nprocshared=4
# opt freq B3LYP/6-31G(d) empiricaldispersion=gd3bj scf=xqc

CID_53164837_JID_8022_neutraal

0 1
C          0.99402        0.08756        0.04793
O          0.43498        0.68742        1.21200
C          0.75448       -0.03059        2.39315
C         -0.00527       -1.34286        2.57174
O          0.53529       -2.41742        2.28476
N         -1.26674       -1.39427        3.08850
C         -2.20511       -0.41007        3.44411
C         -2.19189        0.92717        3.13261
N         -3.14450        1.80754        3.52665
C         -4.16846        1.35509        4.26710
N         -4.28454        0.05952        4.59404
C         -3.31653       -0.78400        4.17296
N         -5.12177        2.26239        4.72117
C         -6.37687        1.67622        5.21873
C         -7.30349        1.31644        4.04430
O         -7.54976        2.45857        3.20150
C         -6.31427        2.99035        2.68487
C         -5.36307        3.40432        3.82266
H          0.74565        0.71629       -0.81148
H          0.56945       -0.90653       -0.11854
H          2.08351        0.02673        0.12993
H          1.83061       -0.24342        2.42755
H          0.56153        0.61084        3.25881
H         -1.54375       -2.35824        3.24553
H         -1.43235        1.38835        2.51641
H         -3.47247       -1.81497        4.47904
H         -6.87384        2.43852        5.83268
H         -6.21374        0.81555        5.87745
H         -6.88845        0.50866        3.43095
H         -8.27111        0.97855        4.42859
H         -6.56427        3.86423        2.07520
H         -5.85644        2.24324        2.02620
H         -5.84837        4.19176        4.41357
H         -4.44164        3.84500        3.42592

--Link1--
%chk=JID_8022.chk
%mem=8GB
%nprocshared=4
# B3LYP/6-311++G(d,p) empiricaldispersion=gd3bj scf=xqc pop=npa geom=check

CID_53164837_JID_8022_Energie_neutraal

0 1

--Link1--
%chk=JID_8022.chk
%mem=8GB
%nprocshared=4
# B3LYP/6-311++G(d,p) empiricaldispersion=gd3bj scf=xqc pop=npa geom=check

CID_53164837_JID_8022_Energie_kation

1 2

--Link1--
%chk=JID_8022.chk
%mem=8GB
%nprocshared=4
# B3LYP/6-311++G(d,p) empiricaldispersion=gd3bj scf=xqc pop=npa geom=check

CID_53164837_JID_8022_Energie_anion

-1 2
