%chk=JID_10834.chk
%mem=8GB
%nprocshared=4
# opt freq B3LYP/6-31G(d) empiricaldispersion=gd3bj scf=xqc

CID_65580400_JID_10834_neutraal

0 1
C          1.07944        0.05994       -0.00979
C          0.46318       -0.30261       -1.35554
C          1.09153       -1.54244       -2.00068
N          0.81123       -2.74416       -1.21667
C          1.42674       -3.96876       -1.77032
C          2.97267       -4.00740       -1.66024
C          3.46465       -3.84718       -0.26612
N          3.55453       -2.73836        0.44509
C          4.03233       -3.17004        1.65537
C          4.33469       -2.46872        2.82901
C          4.81051       -3.19761        3.92964
C          4.97938       -4.58697        3.85993
C          4.68232       -5.30133        2.69215
C          4.21472       -4.54312        1.62608
O          3.85384       -4.98735        0.38706
C          0.75552       -5.18479       -1.08285
C         -0.75963       -5.25881       -1.30723
C         -1.12234       -6.68707       -0.92118
C          0.12743       -7.52286       -1.18670
C          1.21291       -6.54288       -1.62255
H          0.86673       -0.69714        0.75065
H          0.66674        1.00939        0.34638
H          2.16503        0.17317       -0.09256
H         -0.61757       -0.44553       -1.23542
H          0.59434        0.54611       -2.03767
H          0.67292       -1.65907       -3.00698
H          2.16834       -1.37362       -2.10452
H          1.15810       -2.60632       -0.26320
H          1.17589       -4.02253       -2.83884
H          3.35865       -4.94118       -2.08471
H          3.40936       -3.21033       -2.27331
H          4.20112       -1.39396        2.87852
H          5.05081       -2.67261        4.85222
H          5.34902       -5.12345        4.73221
H          4.80531       -6.37420        2.61995
H          0.94393       -5.15467       -0.00007
H         -1.31253       -4.52932       -0.70731
H         -1.00540       -5.08602       -2.36235
H         -1.98667       -7.05014       -1.48603
H         -1.38054       -6.73689        0.14312
H         -0.04856       -8.28146       -1.95634
H          0.42661       -8.04784       -0.27237
H          1.27287       -6.52382       -2.71773
H          2.19304       -6.84074       -1.23804

--Link1--
%chk=JID_10834.chk
%mem=8GB
%nprocshared=4
# B3LYP/6-311++G(d,p) empiricaldispersion=gd3bj scf=xqc pop=npa geom=check

CID_65580400_JID_10834_Energie_neutraal

0 1

--Link1--
%chk=JID_10834.chk
%mem=8GB
%nprocshared=4
# B3LYP/6-311++G(d,p) empiricaldispersion=gd3bj scf=xqc pop=npa geom=check

CID_65580400_JID_10834_Energie_kation

1 2

--Link1--
%chk=JID_10834.chk
%mem=8GB
%nprocshared=4
# B3LYP/6-311++G(d,p) empiricaldispersion=gd3bj scf=xqc pop=npa geom=check

CID_65580400_JID_10834_Energie_anion

-1 2
