%chk=JID_4548.chk
%mem=8GB
%nprocshared=4
# opt freq B3LYP/6-31G(d) empiricaldispersion=gd3bj scf=xqc

CID_151136373_JID_4548_neutraal

0 1
C          1.02231        0.02055       -0.09529
C         -0.05363       -0.90754        0.47723
C          0.50448       -1.61176        1.71705
C         -1.34578       -0.15199        0.83901
O         -2.22534       -0.00984       -0.27563
C         -2.02762        1.14634       -1.08613
C         -3.06446        2.27981       -0.83476
C         -2.99845        2.75761        0.62631
C         -2.67434        3.45725       -1.75492
C         -4.51800        1.93321       -1.13253
C         -5.05921        0.72392       -1.33421
N         -6.39832        0.57568       -1.57615
N         -6.92604       -0.20418       -0.75929
N         -7.42347       -0.90869       -0.01050
H          1.17974        0.89522        0.54439
H          0.75585        0.36459       -1.09812
H          1.97982       -0.50386       -0.18911
H         -0.28029       -1.66956       -0.27909
H          0.73882       -0.89435        2.51062
H         -0.21828       -2.33370        2.11210
H          1.41966       -2.16285        1.47474
H         -1.90980       -0.74201        1.57046
H         -1.13422        0.81310        1.31082
H         -1.01767        1.54545       -0.95537
H         -2.10048        0.81188       -2.12836
H         -1.97894        3.05280        0.89898
H         -3.64459        3.62774        0.79396
H         -3.32246        1.97478        1.32157
H         -2.72996        3.16989       -2.81179
H         -3.33445        4.32086       -1.61104
H         -1.65013        3.79310       -1.55492
H         -5.20104        2.78365       -1.15500
H         -4.45327       -0.18085       -1.31591

--Link1--
%chk=JID_4548.chk
%mem=8GB
%nprocshared=4
# B3LYP/6-311++G(d,p) empiricaldispersion=gd3bj scf=xqc pop=npa geom=check

CID_151136373_JID_4548_Energie_neutraal

0 1

--Link1--
%chk=JID_4548.chk
%mem=8GB
%nprocshared=4
# B3LYP/6-311++G(d,p) empiricaldispersion=gd3bj scf=xqc pop=npa geom=check

CID_151136373_JID_4548_Energie_kation

1 2

--Link1--
%chk=JID_4548.chk
%mem=8GB
%nprocshared=4
# B3LYP/6-311++G(d,p) empiricaldispersion=gd3bj scf=xqc pop=npa geom=check

CID_151136373_JID_4548_Energie_anion

-1 2
