%chk=JID_2625.chk
%mem=8GB
%nprocshared=4
# opt freq B3LYP/6-31G(d) empiricaldispersion=gd3bj scf=xqc

CID_146974339_JID_2625_neutraal

0 1
C          1.06037       -0.06004        0.05245
C          0.43167       -1.11956        0.94912
C          0.98418       -1.11853        2.39015
C          0.65152        0.20410        3.09566
C          0.41410       -2.29434        3.22318
C          1.23099       -3.59645        3.13624
N          0.67772       -4.61097        4.03386
C          1.29389       -5.82863        3.48568
C          0.21972       -6.87513        3.07268
N          0.39163       -6.41341        1.67875
N          1.52567       -5.60634        2.03716
N          1.18981       -4.22692        1.82545
H          0.78113        0.95049        0.36356
H          0.71612       -0.19127       -0.97869
H          2.15200       -0.13845        0.05692
H         -0.65535       -0.97267        0.96478
H          0.60518       -2.09067        0.47803
H          2.07755       -1.20663        2.35474
H         -0.42969        0.37665        3.12446
H          1.02157        0.19916        4.12683
H          1.12202        1.05550        2.59517
H          0.39170       -2.00188        4.28231
H         -0.63245       -2.47445        2.94126
H          2.26988       -3.38839        3.42859
H         -0.32256       -4.61070        3.84021
H          2.15288       -6.21448        4.04289
H         -0.78954       -6.74813        3.47642
H          0.53064       -7.91486        3.22689
H          0.68050       -7.14457        1.02870
H          1.88213       -3.79176        1.21898

--Link1--
%chk=JID_2625.chk
%mem=8GB
%nprocshared=4
# B3LYP/6-311++G(d,p) empiricaldispersion=gd3bj scf=xqc pop=npa geom=check

CID_146974339_JID_2625_Energie_neutraal

0 1

--Link1--
%chk=JID_2625.chk
%mem=8GB
%nprocshared=4
# B3LYP/6-311++G(d,p) empiricaldispersion=gd3bj scf=xqc pop=npa geom=check

CID_146974339_JID_2625_Energie_kation

1 2

--Link1--
%chk=JID_2625.chk
%mem=8GB
%nprocshared=4
# B3LYP/6-311++G(d,p) empiricaldispersion=gd3bj scf=xqc pop=npa geom=check

CID_146974339_JID_2625_Energie_anion

-1 2
