%chk=JID_361.chk
%mem=8GB
%nprocshared=4
# opt freq B3LYP/6-31G(d) empiricaldispersion=gd3bj scf=xqc

CID_541606_JID_361_neutraal

0 1
C          0.92594       -0.03840       -0.05515
C          1.02200       -0.22781        1.44906
O          1.54352        0.93909        2.08153
C          2.89934        1.20353        2.09680
C          3.83160        0.34214        1.64920
C          5.26187        0.69148        1.56618
O          6.09753       -0.14320        1.23421
N          3.20550        2.46583        2.61979
C          2.24072        3.55813        2.41068
C          3.81622        2.53266        3.95852
H          0.35093        0.86301       -0.29190
H          0.43841       -0.89925       -0.52170
H          1.91335        0.08684       -0.50895
H          0.00832       -0.36426        1.84271
H          1.57648       -1.13043        1.72605
H          3.60763       -0.64392        1.26970
H          5.53918        1.73096        1.80053
H          1.37205        3.44815        3.06943
H          2.71155        4.52586        2.61438
H          1.89679        3.57646        1.37040
H          4.60476        1.78375        4.08406
H          4.27157        3.51590        4.11852
H          3.06024        2.36619        4.73389

--Link1--
%chk=JID_361.chk
%mem=8GB
%nprocshared=4
# B3LYP/6-311++G(d,p) empiricaldispersion=gd3bj scf=xqc pop=npa geom=check

CID_541606_JID_361_Energie_neutraal

0 1

--Link1--
%chk=JID_361.chk
%mem=8GB
%nprocshared=4
# B3LYP/6-311++G(d,p) empiricaldispersion=gd3bj scf=xqc pop=npa geom=check

CID_541606_JID_361_Energie_kation

1 2

--Link1--
%chk=JID_361.chk
%mem=8GB
%nprocshared=4
# B3LYP/6-311++G(d,p) empiricaldispersion=gd3bj scf=xqc pop=npa geom=check

CID_541606_JID_361_Energie_anion

-1 2
