%chk=JID_7592.chk
%mem=8GB
%nprocshared=4
# opt freq B3LYP/6-31G(d) empiricaldispersion=gd3bj scf=xqc

CID_116562363_JID_7592_neutraal

0 1
6	2.174390	 2.172748	 1.447748
6	-1.439270	 0.853094	 0.486962
6	-2.286750	 1.946852	 0.310023
6	-3.596936	 1.757515	 -0.131268
6	-4.057773	 0.468920	 -0.417653
6	-3.209711	 -0.622180	 -0.261987
6	-1.898068	 -0.442145	 0.203387
6	-1.029681	 -1.654759	 0.336926
8	-1.326284	 -2.692208	 -0.240383
6	0.196334	 -1.624609	 1.246322
6	1.461692	 -2.198030	 0.580869
6	2.265448	 -1.195752	 -0.266691
6	1.487011	 -0.673781	 -1.493081
6	2.105465	 0.634575	 -1.987290
6	1.971524	 1.730165	 -0.912715
7	1.925890	 1.158410	 0.439973
6	2.799162	 -0.005697	 0.571186
1	3.192123	 2.605390	 1.386300
1	1.455791	 2.991963	 1.327601
1	2.042825	 1.746336	 2.448334
1	-1.921886	 2.949397	 0.516417
1	-4.257304	 2.611187	 -0.257831
1	-5.076012	 0.320206	 -0.766012
1	-3.539322	 -1.629553	 -0.493401
1	0.382260	 -0.630641	 1.653871
1	-0.076250	 -2.269848	 2.092469
1	2.123021	 -2.589663	 1.364194
1	1.161716	 -3.053822	 -0.034834
1	3.144325	 -1.738278	 -0.642063
1	1.482104	 -1.433933	 -2.281871
1	0.440764	 -0.485294	 -1.236893
1	3.165021	 0.467407	 -2.220630
1	1.631893	 0.973297	 -2.914895
1	2.808746	 2.447677	 -1.009624
1	1.043620	 2.298194	 -1.060938
1	-0.407340	 1.010299	 0.786144
1	2.836875	 -0.281721	 1.631442
1	3.839065	 0.238698	 0.279035

--Link1--
%chk=JID_7592.chk
%mem=8GB
%nprocshared=4
# B3LYP/6-311++G(d,p) empiricaldispersion=gd3bj scf=xqc pop=npa geom=check

CID_116562363_JID_7592_Energie_neutraal

0 1

--Link1--
%chk=JID_7592.chk
%mem=8GB
%nprocshared=4
# B3LYP/6-311++G(d,p) empiricaldispersion=gd3bj scf=xqc pop=npa geom=check

CID_116562363_JID_7592_Energie_kation

1 2

--Link1--
%chk=JID_7592.chk
%mem=8GB
%nprocshared=4
# B3LYP/6-311++G(d,p) empiricaldispersion=gd3bj scf=xqc pop=npa geom=check

CID_116562363_JID_7592_Energie_anion

-1 2
