%chk=JID_4105.chk
%mem=8GB
%nprocshared=4
# opt freq B3LYP/6-31G(d) empiricaldispersion=gd3bj scf=xqc

CID_62363326_JID_4105_neutraal

0 1
C          0.94909        0.07654       -0.03937
C          0.45034       -0.40840        1.32738
C          0.24382        0.82818        2.22551
C         -0.88938       -1.14377        1.18806
N          1.44984       -1.26716        1.99005
C          1.68179       -2.57305        1.67279
N          1.68213       -3.60497        2.43491
C          1.27208       -3.50819        3.83161
C          2.49199       -3.58600        4.75856
C          2.06494       -3.55368        6.21588
C          1.89731       -2.06994        6.49348
O          2.68984       -1.36403        5.52497
C          3.35814       -2.33995        4.70913
N          2.04193       -2.75442        0.38368
H          0.29326        0.85664       -0.44326
H          0.97054       -0.72787       -0.78090
H          1.96051        0.49251        0.03195
H         -0.48406        1.52181        1.78987
H         -0.12255        0.54166        3.21855
H          1.18455        1.37242        2.36999
H         -0.80831       -2.01013        0.52238
H         -1.24370       -1.50898        2.15896
H         -1.66072       -0.48419        0.77476
H          1.40326       -1.13592        2.99598
H          0.64434       -2.63505        4.03887
H          0.62600       -4.37174        4.03467
H          3.07406       -4.48330        4.52155
H          2.87309       -3.95032        6.84318
H          1.16243       -4.12972        6.43986
H          0.85708       -1.75222        6.37028
H          2.22513       -1.79858        7.50125
H          4.33855       -2.53025        5.16222
H          3.52915       -1.93571        3.70993
H          2.69661       -2.04970        0.07173
H          2.41313       -3.68939        0.25657

--Link1--
%chk=JID_4105.chk
%mem=8GB
%nprocshared=4
# B3LYP/6-311++G(d,p) empiricaldispersion=gd3bj scf=xqc pop=npa geom=check

CID_62363326_JID_4105_Energie_neutraal

0 1

--Link1--
%chk=JID_4105.chk
%mem=8GB
%nprocshared=4
# B3LYP/6-311++G(d,p) empiricaldispersion=gd3bj scf=xqc pop=npa geom=check

CID_62363326_JID_4105_Energie_kation

1 2

--Link1--
%chk=JID_4105.chk
%mem=8GB
%nprocshared=4
# B3LYP/6-311++G(d,p) empiricaldispersion=gd3bj scf=xqc pop=npa geom=check

CID_62363326_JID_4105_Energie_anion

-1 2
