%chk=JID_9329.chk
%mem=8GB
%nprocshared=4
# opt freq B3LYP/6-31G(d) empiricaldispersion=gd3bj scf=xqc

CID_55247324_JID_9329_neutraal

0 1
C          0.93376       -0.03464       -0.06642
C          0.36773        0.85722       -1.16182
N          1.31854        0.92861       -2.27038
C          0.85244        1.82243       -3.33847
C          0.97702        3.27270       -3.00004
C          0.30080        4.40557       -3.42210
C          0.91294        5.49483       -2.74043
C          1.91558        4.96496       -1.95733
O          1.95886        3.61368       -2.11439
C          2.89580        5.55783       -1.00484
N          3.85278        6.46888       -1.64455
C          4.60597        7.21099       -0.63625
C          4.72991        5.86278       -2.66014
C          5.78485        4.82805       -2.22306
C          5.26620        3.40671       -1.99146
C          6.46792        2.48580       -2.21219
C          7.54784        3.33974       -2.86758
C          6.83243        4.60285       -3.31886
C         -0.82718        4.47997       -4.38110
H          1.12219       -1.04770       -0.43778
H          0.22433       -0.10716        0.76424
H          1.87340        0.36766        0.32731
H         -0.58325        0.43648       -1.50738
H          0.16789        1.84850       -0.74007
H          2.19936        1.31676       -1.92592
H          1.46948        1.63288       -4.22455
H         -0.17822        1.57711       -3.62016
H          0.66186        6.54439       -2.81103
H          2.30355        6.12405       -0.27271
H          3.40342        4.77705       -0.43066
H          5.16672        6.55498        0.03786
H          5.30765        7.90936       -1.10585
H          3.92834        7.81946       -0.02645
H          4.11586        5.43686       -3.46407
H          5.25912        6.69374       -3.14765
H          6.30978        5.17221       -1.32350
H          4.85112        3.26563       -0.99048
H          4.48777        3.15332       -2.71993
H          6.18741        1.64292       -2.85345
H          6.82900        2.06970       -1.26550
H          8.03879        2.82311       -3.69760
H          8.31860        3.58991       -2.12872
H          6.35392        4.43871       -4.29221
H          7.52079        5.44829       -3.41486
H         -1.77957        4.36184       -3.85474
H         -0.83768        5.44521       -4.89765
H         -0.75305        3.69546       -5.14086

--Link1--
%chk=JID_9329.chk
%mem=8GB
%nprocshared=4
# B3LYP/6-311++G(d,p) empiricaldispersion=gd3bj scf=xqc pop=npa geom=check

CID_55247324_JID_9329_Energie_neutraal

0 1

--Link1--
%chk=JID_9329.chk
%mem=8GB
%nprocshared=4
# B3LYP/6-311++G(d,p) empiricaldispersion=gd3bj scf=xqc pop=npa geom=check

CID_55247324_JID_9329_Energie_kation

1 2

--Link1--
%chk=JID_9329.chk
%mem=8GB
%nprocshared=4
# B3LYP/6-311++G(d,p) empiricaldispersion=gd3bj scf=xqc pop=npa geom=check

CID_55247324_JID_9329_Energie_anion

-1 2
