%chk=JID_6233.chk
%mem=8GB
%nprocshared=4
# opt freq B3LYP/6-31G(d) empiricaldispersion=gd3bj scf=xqc

CID_66329404_JID_6233_neutraal

0 1
C          1.06169       -0.01712        0.07682
C          0.87329        0.32412       -1.39481
O          1.72261       -0.49033       -2.20808
C          3.02991       -0.05104       -2.21197
N          3.27670        1.25902       -2.34526
C          4.57294        1.58180       -2.35002
N          5.60157        0.73368       -2.19842
C          5.30434       -0.56559       -2.04575
C          4.00245       -1.01414       -2.09903
N          6.32288       -1.51535       -1.86166
C          7.67580       -0.98133       -1.65358
C          7.89610       -0.33419       -0.26621
C          7.81370       -1.25373        0.93091
C          7.63274       -2.75754        0.88130
C          8.95309       -2.18307        1.29571
O          9.16119        0.33557       -0.22549
H          0.92872       -1.09127        0.24275
H          0.34053        0.52706        0.69347
H          2.06952        0.23902        0.41869
H         -0.15664        0.08368       -1.68129
H          1.00159        1.39659       -1.58274
H          4.81985        2.62977       -2.48052
H          3.74661       -2.06057       -2.01711
H          6.05120       -2.15348       -1.11964
H          8.38543       -1.80841       -1.77866
H          7.94067       -0.27212       -2.44896
H          7.14683        0.45039       -0.11768
H          7.35225       -0.72784        1.76393
H          7.01674       -3.21310        1.65049
H          7.61660       -3.29602       -0.05782
H          9.78527       -2.31284        0.61465
H          9.23202       -2.24579        2.34240
H          9.84889       -0.32566       -0.40367

--Link1--
%chk=JID_6233.chk
%mem=8GB
%nprocshared=4
# B3LYP/6-311++G(d,p) empiricaldispersion=gd3bj scf=xqc pop=npa geom=check

CID_66329404_JID_6233_Energie_neutraal

0 1

--Link1--
%chk=JID_6233.chk
%mem=8GB
%nprocshared=4
# B3LYP/6-311++G(d,p) empiricaldispersion=gd3bj scf=xqc pop=npa geom=check

CID_66329404_JID_6233_Energie_kation

1 2

--Link1--
%chk=JID_6233.chk
%mem=8GB
%nprocshared=4
# B3LYP/6-311++G(d,p) empiricaldispersion=gd3bj scf=xqc pop=npa geom=check

CID_66329404_JID_6233_Energie_anion

-1 2
