%chk=JID_8025.chk
%mem=8GB
%nprocshared=4
# opt freq B3LYP/6-31G(d) empiricaldispersion=gd3bj scf=xqc

CID_113821429_JID_8025_neutraal

0 1
C          0.92390        0.06320        0.01465
C          0.36298        0.09536       -1.40601
C          0.87853       -1.14481       -2.17778
O          0.18569       -2.16817       -2.23688
N          2.15225       -1.08892       -2.75003
C          2.92515        0.13554       -2.89867
C          2.57746       -2.20763       -3.57608
N         -1.09233        0.05204       -1.32869
C         -1.85311        1.14473       -1.50581
N         -1.42762        2.30130       -1.96168
C         -2.46934        3.21298       -2.03671
C         -3.68040        2.73822       -1.57346
S         -3.53238        1.09400       -1.12777
C         -2.18993        4.57368       -2.59548
C         -2.66094        4.72603       -4.03993
C         -4.14877        4.92300       -4.12753
O         -4.89320        5.32519       -3.24964
O         -4.62814        4.64961       -5.35615
H          0.58913       -0.83199        0.55200
H          0.58955        0.93660        0.58501
H          2.01815        0.05403        0.01792
H          0.68646        1.00006       -1.92851
H          3.98842       -0.11033       -2.97767
H          2.59697        0.64668       -3.80828
H          2.79765        0.80298       -2.04562
H          2.03343       -3.12486       -3.33658
H          2.40046       -1.95363       -4.62559
H          3.64510       -2.38584       -3.41676
H         -1.50205       -0.85542       -1.12895
H         -4.62683        3.25619       -1.50579
H         -2.63834        5.33702       -1.94859
H         -1.10567        4.74147       -2.56724
H         -2.19329        5.60891       -4.48959
H         -2.38071        3.84439       -4.62821
H         -5.58979        4.82778       -5.28776

--Link1--
%chk=JID_8025.chk
%mem=8GB
%nprocshared=4
# B3LYP/6-311++G(d,p) empiricaldispersion=gd3bj scf=xqc pop=npa geom=check

CID_113821429_JID_8025_Energie_neutraal

0 1

--Link1--
%chk=JID_8025.chk
%mem=8GB
%nprocshared=4
# B3LYP/6-311++G(d,p) empiricaldispersion=gd3bj scf=xqc pop=npa geom=check

CID_113821429_JID_8025_Energie_kation

1 2

--Link1--
%chk=JID_8025.chk
%mem=8GB
%nprocshared=4
# B3LYP/6-311++G(d,p) empiricaldispersion=gd3bj scf=xqc pop=npa geom=check

CID_113821429_JID_8025_Energie_anion

-1 2
