%chk=JID_7411.chk
%mem=8GB
%nprocshared=4
# opt freq B3LYP/6-31G(d) empiricaldispersion=gd3bj scf=xqc

CID_128567082_JID_7411_neutraal

0 1
C          0.99612        0.07697        0.06372
C          0.06809        1.23878       -0.30019
C          0.42091        1.71321       -1.71921
C         -1.46315        0.95733       -0.18824
C         -2.01459        1.13400        1.23881
C         -1.82552       -0.08546        2.13046
C         -2.28071       -1.36521        1.44268
N         -1.69500       -1.51974        0.11632
C         -1.91575       -0.38656       -0.78502
C         -1.46326       -2.76978       -0.48514
O         -1.55690       -2.88181       -1.71947
C         -1.00359       -3.98081        0.34200
C         -0.03176       -3.85004        1.53292
C         -0.79795       -5.00735        2.23184
C         -1.97916       -4.74878        1.25523
C         -1.10929       -4.76104        3.69994
O         -0.16909       -6.30044        2.09314
H          0.88644       -0.76501       -0.62662
H          0.83153       -0.28209        1.07981
H          2.04251        0.39959        0.01028
H          0.30663        2.07329        0.37244
H          0.23707        0.93313       -2.46470
H         -0.16801        2.59441       -1.99495
H          1.47806        1.99402       -1.78179
H         -1.95226        1.74193       -0.78408
H         -1.57908        2.01867        1.71746
H         -3.09272        1.33128        1.16331
H         -0.77656       -0.17326        2.42657
H         -2.39224        0.05008        3.05919
H         -2.05757       -2.20937        2.08756
H         -3.37015       -1.35779        1.31183
H         -2.99370       -0.35535       -0.99132
H         -1.42015       -0.55303       -1.74693
H         -0.56069       -4.70240       -0.37015
H          1.01160       -4.07413        1.28375
H         -0.03680       -2.89673        2.06823
H         -2.80879       -4.16797        1.66848
H         -2.40547       -5.64882        0.79870
H         -1.79382       -5.52373        4.08606
H         -0.19436       -4.79295        4.30110
H         -1.57755       -3.78421        3.85853
H         -0.84987       -6.94921        2.34215

--Link1--
%chk=JID_7411.chk
%mem=8GB
%nprocshared=4
# B3LYP/6-311++G(d,p) empiricaldispersion=gd3bj scf=xqc pop=npa geom=check

CID_128567082_JID_7411_Energie_neutraal

0 1

--Link1--
%chk=JID_7411.chk
%mem=8GB
%nprocshared=4
# B3LYP/6-311++G(d,p) empiricaldispersion=gd3bj scf=xqc pop=npa geom=check

CID_128567082_JID_7411_Energie_kation

1 2

--Link1--
%chk=JID_7411.chk
%mem=8GB
%nprocshared=4
# B3LYP/6-311++G(d,p) empiricaldispersion=gd3bj scf=xqc pop=npa geom=check

CID_128567082_JID_7411_Energie_anion

-1 2
