%chk=JID_2874.chk
%mem=8GB
%nprocshared=4
# opt freq B3LYP/6-31G(d) empiricaldispersion=gd3bj scf=xqc

CID_10241250_JID_2874_neutraal

0 1
C          0.99715        0.08282        0.05597
C          0.49415       -0.30636        1.43692
C          0.42452        0.85785        2.43266
C         -0.31830        2.13060        1.98955
N         -1.77333        2.17732        2.23888
C         -2.27310        3.51599        1.87291
C         -3.76797        3.67353        2.14929
C         -4.57907        2.60010        1.41638
C         -4.02343        1.22124        1.77453
C         -2.51520        1.13111        1.52824
C         -6.07101        2.67986        1.74503
O         -6.62537        3.90403        1.28127
H          0.26415        0.69106       -0.48170
H          1.17734       -0.81561       -0.54343
H          1.93690        0.64010        0.12007
H         -0.47140       -0.80693        1.33661
H          1.17540       -1.06015        1.85179
H          0.00909        0.49654        3.38178
H          1.45980        1.14915        2.65810
H          0.12794        2.94565        2.57650
H         -0.09551        2.36493        0.94262
H         -2.07713        3.72448        0.81243
H         -1.74377        4.27995        2.45590
H         -4.08219        4.67384        1.83000
H         -3.94957        3.61105        3.23012
H         -4.45538        2.76624        0.33737
H         -4.23044        0.99851        2.82993
H         -4.53037        0.44836        1.18410
H         -2.21249        0.14815        1.89596
H         -2.31329        1.16921        0.45036
H         -6.61229        1.86885        1.24671
H         -6.25766        2.59435        2.82109
H         -6.32375        4.60790        1.88008

--Link1--
%chk=JID_2874.chk
%mem=8GB
%nprocshared=4
# B3LYP/6-311++G(d,p) empiricaldispersion=gd3bj scf=xqc pop=npa geom=check

CID_10241250_JID_2874_Energie_neutraal

0 1

--Link1--
%chk=JID_2874.chk
%mem=8GB
%nprocshared=4
# B3LYP/6-311++G(d,p) empiricaldispersion=gd3bj scf=xqc pop=npa geom=check

CID_10241250_JID_2874_Energie_kation

1 2

--Link1--
%chk=JID_2874.chk
%mem=8GB
%nprocshared=4
# B3LYP/6-311++G(d,p) empiricaldispersion=gd3bj scf=xqc pop=npa geom=check

CID_10241250_JID_2874_Energie_anion

-1 2
