%chk=JID_6134.chk
%mem=8GB
%nprocshared=4
# opt freq B3LYP/6-31G(d) empiricaldispersion=gd3bj scf=xqc

CID_51077854_JID_6134_neutraal

0 1
C          1.48500       -1.16700        0.02800
C          1.68698        0.16471       -0.67841
C          1.44881        1.42668        0.14416
C          0.07933        1.67207        0.78605
C         -1.19536        1.49159       -0.05735
C         -1.84343        0.09829        0.06335
C         -1.04775       -1.12308       -0.39331
C          0.09254       -1.49600        0.54861
N         -1.01553        1.91539       -1.44104
C         -1.87738        2.53377       -2.29136
O         -1.58169        2.55490       -3.48841
C         -3.17180        3.14489       -1.79759
S         -4.52129        1.92578       -1.67786
C         -4.29673        1.01445       -3.24944
C         -4.61975        1.85727       -4.47243
N         -4.88772        2.55647       -5.48701
H          2.19528       -1.24573        0.86076
H          1.77332       -1.95632       -0.67941
H          2.73420        0.19599       -1.01053
H          1.11376        0.18026       -1.60710
H          1.67601        2.28452       -0.50320
H          2.20052        1.46421        0.94376
H          0.09555        2.72184        1.11504
H         -0.00513        1.10336        1.71865
H         -1.93314        2.17445        0.38061
H         -2.77239        0.08934       -0.51195
H         -2.14853       -0.05285        1.10762
H         -0.72031       -1.01890       -1.43236
H         -1.75111       -1.96729       -0.39676
H          0.06219       -2.58191        0.71208
H         -0.05411       -1.06256        1.54308
H         -0.22592        1.54359       -1.95177
H         -3.02143        3.62308       -0.82609
H         -3.46808        3.93909       -2.49113
H         -3.29665        0.57955       -3.32130
H         -4.99930        0.17408       -3.22955

--Link1--
%chk=JID_6134.chk
%mem=8GB
%nprocshared=4
# B3LYP/6-311++G(d,p) empiricaldispersion=gd3bj scf=xqc pop=npa geom=check

CID_51077854_JID_6134_Energie_neutraal

0 1

--Link1--
%chk=JID_6134.chk
%mem=8GB
%nprocshared=4
# B3LYP/6-311++G(d,p) empiricaldispersion=gd3bj scf=xqc pop=npa geom=check

CID_51077854_JID_6134_Energie_kation

1 2

--Link1--
%chk=JID_6134.chk
%mem=8GB
%nprocshared=4
# B3LYP/6-311++G(d,p) empiricaldispersion=gd3bj scf=xqc pop=npa geom=check

CID_51077854_JID_6134_Energie_anion

-1 2
