%chk=JID_10439.chk
%mem=8GB
%nprocshared=4
# opt=(cartesian,calcfc,maxcycle=500) freq B3LYP/6-31G(d) empiricaldispersion=gd3bj scf=xqc

CID_108000088_JID_10439_neutraal

0 1
C          2.54100        1.06400        0.00800
C          1.06046        0.81228       -0.07059
C          0.12233        1.86046        0.03040
C         -1.26283        1.61307       -0.03141
C         -1.70026        0.29431       -0.21325
C         -0.78091       -0.74835       -0.33527
C          0.58880       -0.49238       -0.26640
C         -2.26659        2.72343        0.09825
C          0.60639        3.25077        0.19583
O          0.55882        3.80584        1.28433
N          1.09026        3.81579       -0.96114
C          1.59352        5.16698       -0.98516
C          2.37277        5.53972       -2.24729
C          3.43268        4.53293       -2.70623
C          3.63329        4.79912       -4.20009
C          2.62685        5.88117       -4.59332
C          1.55204        5.84188       -3.50828
C          0.49272        4.82586       -3.87159
O          0.48856        3.63456       -3.60643
O         -0.50409        5.37053       -4.59547
H          2.89600        1.52964       -0.91608
H          2.78330        1.70708        0.86013
H          3.09437        0.12899        0.14776
H         -2.76331        0.06815       -0.26232
H         -1.13392       -1.76678       -0.47940
H          1.28641       -1.32214       -0.35906
H         -2.20350        3.18021        1.09082
H         -2.09573        3.48591       -0.66855
H         -3.28963        2.35423       -0.03154
H          0.90615        3.33039       -1.84026
H          0.74273        5.84390       -0.84587
H          2.24480        5.28817       -0.11087
H          2.90513        6.47276       -2.00483
H          4.36651        4.65996       -2.14831
H          3.11435        3.49480       -2.56667
H          3.44674        3.88036       -4.76834
H          4.65810        5.11509       -4.42047
H          2.23643        5.71746       -5.60300
H          3.12520        6.85838       -4.58331
H          1.05907        6.81582       -3.40116
H         -1.11107        4.62484       -4.78572

--Link1--
%chk=JID_10439.chk
%mem=8GB
%nprocshared=4
# B3LYP/6-311++G(d,p) empiricaldispersion=gd3bj scf=xqc pop=npa geom=check

CID_108000088_JID_10439_Energie_neutraal

0 1

--Link1--
%chk=JID_10439.chk
%mem=8GB
%nprocshared=4
# B3LYP/6-311++G(d,p) empiricaldispersion=gd3bj scf=xqc pop=npa geom=check

CID_108000088_JID_10439_Energie_kation

1 2

--Link1--
%chk=JID_10439.chk
%mem=8GB
%nprocshared=4
# B3LYP/6-311++G(d,p) empiricaldispersion=gd3bj scf=xqc pop=npa geom=check

CID_108000088_JID_10439_Energie_anion

-1 2
