%chk=JID_10659.chk
%mem=8GB
%nprocshared=4
# opt freq B3LYP/6-31G(d) empiricaldispersion=gd3bj scf=xqc

CID_135491143_JID_10659_neutraal

0 1
C          1.34400       -0.22500        0.03600
C          0.96970        0.97122       -0.57265
C         -0.37709        1.32872       -0.64165
C         -1.36212        0.49224       -0.09930
C         -0.97548       -0.70970        0.50911
C          0.37218       -1.06608        0.57489
C         -2.81599        0.90063       -0.13673
C         -3.31246        1.46804        1.19662
C         -2.72166        2.81677        1.51039
C         -1.61080        2.93950        2.34713
N         -1.04141        4.12952        2.64504
C         -1.63493        5.19600        2.04778
C         -1.10527        6.55295        2.28412
O         -0.12996        6.79032        2.98808
N         -1.78490        7.56866        1.64840
C         -2.85284        7.37060        0.82449
N         -3.34435        6.20061        0.58427
C         -2.73534        5.10009        1.20366
N         -3.29745        3.90094        0.92480
N         -3.39533        8.47491        0.25914
H          2.39365       -0.50197        0.08894
H          1.72731        1.62840       -0.99186
H         -0.65248        2.26970       -1.11439
H         -1.72149       -1.37710        0.93462
H          0.66519       -2.00045        1.04663
H         -2.98112        1.62141       -0.94796
H         -3.41397        0.01736       -0.39603
H         -4.40287        1.58138        1.14584
H         -3.11727        0.77088        2.02084
H         -1.13896        2.07125        2.79768
H         -1.40173        8.49305        1.77002
H         -3.40912        9.31795        0.81793
H         -4.29353        8.27852       -0.17479

--Link1--
%chk=JID_10659.chk
%mem=8GB
%nprocshared=4
# B3LYP/6-311++G(d,p) empiricaldispersion=gd3bj scf=xqc pop=npa geom=check

CID_135491143_JID_10659_Energie_neutraal

0 1

--Link1--
%chk=JID_10659.chk
%mem=8GB
%nprocshared=4
# B3LYP/6-311++G(d,p) empiricaldispersion=gd3bj scf=xqc pop=npa geom=check

CID_135491143_JID_10659_Energie_kation

1 2

--Link1--
%chk=JID_10659.chk
%mem=8GB
%nprocshared=4
# B3LYP/6-311++G(d,p) empiricaldispersion=gd3bj scf=xqc pop=npa geom=check

CID_135491143_JID_10659_Energie_anion

-1 2
