%chk=JID_8529.chk
%mem=8GB
%nprocshared=4
# opt freq B3LYP/6-31G(d) empiricaldispersion=gd3bj scf=xqc

CID_43054581_JID_8529_neutraal

0 1
C          2.49200        0.00400       -0.01400
C          1.20938        0.21845       -0.77040
C          0.50691       -0.91408       -1.21907
C         -0.68037       -0.78547       -1.94093
C         -1.17826        0.47811       -2.23938
C         -0.48554        1.61238       -1.81791
C          0.70960        1.49328       -1.09420
N          1.32739        2.70505       -0.63928
C          0.61621        3.51312        0.37203
C          1.42319        3.94581        1.57881
O          2.14691        4.94401        1.54642
N          1.34104        3.19352        2.72100
O          0.09918        2.56215        2.96603
C          0.33009        1.17153        3.17252
S          2.87967        3.09000       -1.16786
O          3.76768        3.09687       -0.02566
O          3.19951        2.28353       -2.32986
C          2.68323        4.75963       -1.75722
H          2.49401       -0.97397        0.48029
H          3.34677        0.04163       -0.69519
H          2.61907        0.74776        0.77707
H          0.88657       -1.91178       -1.00627
H         -1.21090       -1.67361       -2.27521
H         -2.10062        0.58091       -2.80473
H         -0.88063        2.59371       -2.06519
H          0.24668        4.42480       -0.11496
H         -0.28896        2.99321        0.70283
H          1.76289        3.63962        3.52978
H         -0.62961        0.69562        3.39178
H          0.74511        0.71455        2.27203
H          1.00074        1.01695        4.02324
H          1.91092        4.77130       -2.52875
H          2.42342        5.42276       -0.93390
H          3.63684        5.07324       -2.18862

--Link1--
%chk=JID_8529.chk
%mem=8GB
%nprocshared=4
# B3LYP/6-311++G(d,p) empiricaldispersion=gd3bj scf=xqc pop=npa geom=check

CID_43054581_JID_8529_Energie_neutraal

0 1

--Link1--
%chk=JID_8529.chk
%mem=8GB
%nprocshared=4
# B3LYP/6-311++G(d,p) empiricaldispersion=gd3bj scf=xqc pop=npa geom=check

CID_43054581_JID_8529_Energie_kation

1 2

--Link1--
%chk=JID_8529.chk
%mem=8GB
%nprocshared=4
# B3LYP/6-311++G(d,p) empiricaldispersion=gd3bj scf=xqc pop=npa geom=check

CID_43054581_JID_8529_Energie_anion

-1 2
