%chk=JID_6437.chk
%mem=8GB
%nprocshared=4
# opt freq B3LYP/6-31G(d) empiricaldispersion=gd3bj scf=xqc

CID_81538392_JID_6437_neutraal

0 1
C          0.94783        0.04977        0.06929
C          0.07446        0.54319        1.21498
C          0.52404        1.88528        1.75363
C          1.22415        1.88919        2.97877
C          1.71075        3.07258        3.53348
C          1.51498        4.27699        2.87167
C          0.82833        4.29485        1.65720
C          0.31857        3.11280        1.08167
C         -0.39816        3.22794       -0.19125
N         -0.12453        4.17049       -1.11284
N         -1.01622        3.89071       -2.07398
C         -1.80546        2.83842       -1.72880
N         -1.44258        2.40270       -0.54602
C         -2.92582        2.26032       -2.57096
C         -3.18572        0.77038       -2.48280
C         -4.14617        1.71979       -1.85426
H          0.91450        0.72261       -0.79266
H          0.60934       -0.93681       -0.26314
H          1.99360       -0.03927        0.38283
H         -0.97890        0.57619        0.92194
H          0.11030       -0.20472        2.01804
H          1.40057        0.95558        3.51002
H          2.24639        3.05010        4.47874
H          1.89447        5.20295        3.29466
H          0.68427        5.24913        1.15260
H         -1.03269        4.45064       -2.91725
H         -3.08869        2.73665       -3.53134
H         -3.49343        0.25503       -3.38483
H         -2.56284        0.17295       -1.82495
H         -4.17443        1.76804       -0.77042
H         -5.11228        1.85699       -2.32531

--Link1--
%chk=JID_6437.chk
%mem=8GB
%nprocshared=4
# B3LYP/6-311++G(d,p) empiricaldispersion=gd3bj scf=xqc pop=npa geom=check

CID_81538392_JID_6437_Energie_neutraal

0 1

--Link1--
%chk=JID_6437.chk
%mem=8GB
%nprocshared=4
# B3LYP/6-311++G(d,p) empiricaldispersion=gd3bj scf=xqc pop=npa geom=check

CID_81538392_JID_6437_Energie_kation

1 2

--Link1--
%chk=JID_6437.chk
%mem=8GB
%nprocshared=4
# B3LYP/6-311++G(d,p) empiricaldispersion=gd3bj scf=xqc pop=npa geom=check

CID_81538392_JID_6437_Energie_anion

-1 2
