%chk=JID_8878.chk
%mem=8GB
%nprocshared=4
# opt freq B3LYP/6-31G(d) empiricaldispersion=gd3bj scf=xqc

CID_144552410_JID_8878_neutraal

0 1
C          0.93747        0.05001       -0.05991
N         -0.09371        0.88935        0.53262
C         -0.76099        1.89688       -0.16243
C         -1.17567        3.02272        0.44043
C         -1.05437        1.73885       -1.61553
N         -0.75857        2.78664       -2.42521
C         -0.99486        2.63021       -3.74488
C         -1.51892        1.47775       -4.30928
C         -1.83836        0.40945       -3.47051
C         -1.60822        0.55537       -2.09831
C         -2.37283       -0.88829       -4.02370
C         -1.32236       -1.97138       -4.11468
C         -1.15926       -2.89613       -3.06909
C         -0.18572       -3.89773       -3.13138
C          0.70011       -3.90328       -4.21026
C          0.55338       -2.99229       -5.25797
C         -0.45786       -2.03409       -5.21430
N          0.04659       -4.72389       -2.02401
H          1.71982        0.66116       -0.52109
H          0.52597       -0.63539       -0.80529
H          1.40034       -0.55909        0.72293
H          0.15787        1.19327        1.47054
H         -1.69375        3.80052       -0.11327
H         -1.00426        3.20180        1.49456
H         -0.73570        3.48543       -4.36238
H         -1.66704        1.41982       -5.38210
H         -1.83953       -0.24850       -1.40610
H         -3.21100       -1.22920       -3.40143
H         -2.81044       -0.72415       -5.01738
H         -1.79749       -2.82816       -2.19128
H          1.51753       -4.61831       -4.24347
H          1.24232       -3.01780       -6.09797
H         -0.54947       -1.31983       -6.02892
H          0.52473       -5.58852       -2.25735
H         -0.78003       -4.88495       -1.45715

--Link1--
%chk=JID_8878.chk
%mem=8GB
%nprocshared=4
# B3LYP/6-311++G(d,p) empiricaldispersion=gd3bj scf=xqc pop=npa geom=check

CID_144552410_JID_8878_Energie_neutraal

0 1

--Link1--
%chk=JID_8878.chk
%mem=8GB
%nprocshared=4
# B3LYP/6-311++G(d,p) empiricaldispersion=gd3bj scf=xqc pop=npa geom=check

CID_144552410_JID_8878_Energie_kation

1 2

--Link1--
%chk=JID_8878.chk
%mem=8GB
%nprocshared=4
# B3LYP/6-311++G(d,p) empiricaldispersion=gd3bj scf=xqc pop=npa geom=check

CID_144552410_JID_8878_Energie_anion

-1 2
