%chk=JID_4349.chk
%mem=8GB
%nprocshared=4
# opt freq B3LYP/6-31G(d) empiricaldispersion=gd3bj scf=xqc

CID_66565699_JID_4349_neutraal

0 1
C          1.05917        0.03205       -0.07397
C          0.42674       -1.35369        0.03352
N          1.05712       -2.23582        1.00408
C          0.28544       -3.35298        1.54613
C         -0.84110       -3.96376        0.67410
N         -0.37209       -4.58171       -0.56810
C          2.51090       -2.31856        1.06616
C          3.19571       -3.01604       -0.12769
C          3.26155       -4.54046        0.04517
C          4.03876       -5.20355       -1.09337
N          5.39598       -4.65457       -1.19386
C          5.36390       -3.20664       -1.43135
C          4.62808       -2.48249       -0.30273
C          6.14491       -5.33160       -2.25265
H          1.11969        0.51722        0.90581
H          0.45063        0.66886       -0.72487
H          2.06280       -0.01330       -0.50818
H         -0.61908       -1.18954        0.31855
H          0.42315       -1.80802       -0.96244
H          0.94970       -4.16674        1.86252
H         -0.18562       -2.99385        2.47007
H         -1.36336       -4.72838        1.26070
H         -1.59144       -3.20506        0.42990
H          0.15642       -5.42158       -0.33794
H          0.30358       -3.95133       -0.99991
H          2.91020       -1.30291        1.17299
H          2.81297       -2.80798        2.00209
H          2.64653       -2.78820       -1.05058
H          2.26033       -4.97169        0.08260
H          3.74335       -4.78688        1.00086
H          3.49110       -5.07651       -2.03653
H          4.08932       -6.28007       -0.88888
H          6.38735       -2.81502       -1.47769
H          4.88352       -2.97695       -2.39172
H          4.60020       -1.40905       -0.52630
H          5.18872       -2.59839        0.63428
H          5.68346       -5.19709       -3.23768
H          7.17271       -4.95476       -2.29865
H          6.21422       -6.40579       -2.04791

--Link1--
%chk=JID_4349.chk
%mem=8GB
%nprocshared=4
# B3LYP/6-311++G(d,p) empiricaldispersion=gd3bj scf=xqc pop=npa geom=check

CID_66565699_JID_4349_Energie_neutraal

0 1

--Link1--
%chk=JID_4349.chk
%mem=8GB
%nprocshared=4
# B3LYP/6-311++G(d,p) empiricaldispersion=gd3bj scf=xqc pop=npa geom=check

CID_66565699_JID_4349_Energie_kation

1 2

--Link1--
%chk=JID_4349.chk
%mem=8GB
%nprocshared=4
# B3LYP/6-311++G(d,p) empiricaldispersion=gd3bj scf=xqc pop=npa geom=check

CID_66565699_JID_4349_Energie_anion

-1 2
