%chk=JID_9748.chk
%mem=8GB
%nprocshared=4
# opt freq B3LYP/6-31G(d) empiricaldispersion=gd3bj scf=xqc

CID_128168273_JID_9748_neutraal

0 1
C          2.32800       -0.03300       -0.27100
C          1.56551       -1.07907        0.53409
C          0.31303       -1.54365       -0.18434
S         -0.82453       -0.20338       -0.47294
O         -1.79889       -0.64992       -1.45001
O         -1.26753        0.26208        0.82962
C          0.16962        1.07603       -1.18063
C          1.52234        1.24842       -0.48769
C          0.26919        0.99770       -2.68816
O         -0.01805        1.97020       -3.38828
N          0.90816       -0.11116       -3.22660
C          0.03800       -1.07114       -3.91415
C          0.95732       -1.67985       -4.95885
O          0.66765       -2.59739       -5.71108
N          2.15554       -0.97302       -4.92650
C          1.98631        0.20002       -4.13981
C          3.14798       -1.06648       -5.94618
C          4.60658       -0.82017       -5.66494
C          4.12609       -2.21087       -5.95132
H          3.24850        0.22226        0.26806
H          2.64385       -0.45880       -1.22843
H          1.30795       -0.66921        1.51806
H          2.21815       -1.94187        0.71009
H         -0.22028       -2.28740        0.41640
H          0.56110       -2.00221       -1.14329
H         -0.41121        1.98997       -0.98684
H          1.35038        1.70562        0.49586
H          2.13855        1.95918       -1.05233
H         -0.29927       -1.83812       -3.21729
H         -0.80145       -0.56404       -4.39875
H          1.73087        1.03862       -4.79825
H          2.89109        0.43341       -3.57139
H          2.77685       -0.75140       -6.91993
H          5.19067       -0.32004       -6.42932
H          4.92337       -0.60214       -4.65238
H          4.08952       -2.92041       -5.13275
H          4.37273       -2.65496       -6.90879

--Link1--
%chk=JID_9748.chk
%mem=8GB
%nprocshared=4
# B3LYP/6-311++G(d,p) empiricaldispersion=gd3bj scf=xqc pop=npa geom=check

CID_128168273_JID_9748_Energie_neutraal

0 1

--Link1--
%chk=JID_9748.chk
%mem=8GB
%nprocshared=4
# B3LYP/6-311++G(d,p) empiricaldispersion=gd3bj scf=xqc pop=npa geom=check

CID_128168273_JID_9748_Energie_kation

1 2

--Link1--
%chk=JID_9748.chk
%mem=8GB
%nprocshared=4
# B3LYP/6-311++G(d,p) empiricaldispersion=gd3bj scf=xqc pop=npa geom=check

CID_128168273_JID_9748_Energie_anion

-1 2
