%chk=JID_6078.chk
%mem=8GB
%nprocshared=4
# opt freq B3LYP/6-31G(d) empiricaldispersion=gd3bj scf=xqc

CID_63002022_JID_6078_neutraal

0 1
C          1.04185       -0.05751       -0.07029
S          0.31813       -1.41549       -1.02812
C          0.92461       -1.02938       -2.66236
C          1.50910       -2.05027       -3.41741
C          1.97223       -1.79992       -4.71228
C          1.84503       -0.52577       -5.28116
C          1.25770        0.49544       -4.52305
C          0.79451        0.24267       -3.22698
C          2.34059       -0.26265       -6.68460
N          3.80167       -0.22286       -6.71325
C          4.32939       -0.00644       -8.05426
C          4.19195        1.40455       -8.48628
C          3.32756        2.02248       -9.36492
N          3.59327        3.36395       -9.45309
C          4.61365        3.56893       -8.65361
N          5.01717        2.41261       -8.05013
H          0.87761       -0.24699        0.99399
H          0.56923        0.89463       -0.32409
H          2.11883        0.00878       -0.24774
H          1.61137       -3.05130       -3.00467
H          2.43449       -2.60496       -5.27997
H          1.14356        1.49353       -4.94079
H          0.31539        1.04824       -2.67782
H          1.96226       -1.05866       -7.33835
H          1.91082        0.67852       -7.04723
H          4.12210        0.50576       -6.08113
H          5.39347       -0.27221       -8.04754
H          3.85728       -0.68414       -8.77586
H          2.52608        1.57196       -9.93677
H          5.09878        4.51943       -8.47545
H          5.78595        2.32013       -7.40045

--Link1--
%chk=JID_6078.chk
%mem=8GB
%nprocshared=4
# B3LYP/6-311++G(d,p) empiricaldispersion=gd3bj scf=xqc pop=npa geom=check

CID_63002022_JID_6078_Energie_neutraal

0 1

--Link1--
%chk=JID_6078.chk
%mem=8GB
%nprocshared=4
# B3LYP/6-311++G(d,p) empiricaldispersion=gd3bj scf=xqc pop=npa geom=check

CID_63002022_JID_6078_Energie_kation

1 2

--Link1--
%chk=JID_6078.chk
%mem=8GB
%nprocshared=4
# B3LYP/6-311++G(d,p) empiricaldispersion=gd3bj scf=xqc pop=npa geom=check

CID_63002022_JID_6078_Energie_anion

-1 2
