%chk=JID_2481.chk
%mem=8GB
%nprocshared=4
# opt freq B3LYP/6-31G(d) empiricaldispersion=gd3bj scf=xqc

CID_145190634_JID_2481_neutraal

0 1
C          1.01662        0.08555        0.04905
C          0.07440       -1.07872        0.30065
C          0.51940       -1.91206        1.49039
C          3.90620       -2.29338       -1.72026
C          3.24540       -1.70535       -2.95796
C          2.27304       -2.57125       -3.69968
C          1.55596       -3.64546       -3.36791
O          0.77904       -4.17399       -4.40376
C          1.03304       -3.35926       -5.47679
O          0.52932       -3.51562       -6.58178
C          1.99858       -2.25776       -5.12934
C          1.41233       -4.34577       -2.06158
H          1.03795        0.76419        0.90780
H          0.68969        0.65571       -0.82610
H          2.03683       -0.26389       -0.13457
H         -0.93675       -0.69691        0.48018
H          0.02887       -1.71106       -0.59247
H          0.55027       -1.30801        2.40290
H         -0.17636       -2.74074        1.65469
H          1.51598       -2.33322        1.32369
H          3.20795       -2.36287       -0.88301
H          4.72757       -1.64528       -1.39569
H          4.32218       -3.28604       -1.91976
H          2.74998       -0.76410       -2.69193
H          4.05447       -1.44189       -3.65183
H          2.89884       -2.34473       -5.74280
H          1.51650       -1.28409       -5.24465
H          1.54994       -3.67418       -1.21309
H          0.40408       -4.76328       -1.96423
H          2.12879       -5.16895       -1.98857

--Link1--
%chk=JID_2481.chk
%mem=8GB
%nprocshared=4
# B3LYP/6-311++G(d,p) empiricaldispersion=gd3bj scf=xqc pop=npa geom=check

CID_145190634_JID_2481_Energie_neutraal

0 1

--Link1--
%chk=JID_2481.chk
%mem=8GB
%nprocshared=4
# B3LYP/6-311++G(d,p) empiricaldispersion=gd3bj scf=xqc pop=npa geom=check

CID_145190634_JID_2481_Energie_kation

1 2

--Link1--
%chk=JID_2481.chk
%mem=8GB
%nprocshared=4
# B3LYP/6-311++G(d,p) empiricaldispersion=gd3bj scf=xqc pop=npa geom=check

CID_145190634_JID_2481_Energie_anion

-1 2
