%chk=JID_6345.chk
%mem=8GB
%nprocshared=4
# opt freq B3LYP/6-31G(d) empiricaldispersion=gd3bj scf=xqc

CID_64629192_JID_6345_neutraal

0 1
C          1.07391        0.02162        0.06379
C          0.87700        0.36354       -1.40458
C          1.21966       -0.78708       -2.35434
C          0.44892       -2.09052       -2.12178
C         -1.07677       -1.96236       -2.12217
C         -1.68775       -1.41639       -3.41554
C         -1.42938       -2.25343       -4.67439
C         -1.82874       -3.73206       -4.58943
N         -3.24485       -3.88324       -4.24228
C         -3.70657       -5.28118       -4.30486
C         -3.21770       -6.06483       -3.07985
C         -5.23742       -5.29653       -4.33686
S         -5.91886       -5.09174       -5.97202
O         -5.35263       -6.11272       -6.83404
O         -7.36028       -4.99347       -5.81670
C         -5.34559       -3.50688       -6.53823
H          0.37345       -0.74919        0.39751
H          0.90615        0.90995        0.68131
H          2.09273       -0.33226        0.25067
H         -0.15423        0.69611       -1.56561
H          1.51793        1.21801       -1.65376
H          1.06101       -0.44850       -3.38510
H          2.29214       -1.00499       -2.27167
H          0.75678       -2.81687       -2.88326
H          0.75825       -2.52322       -1.16249
H         -1.50685       -2.94549       -1.89808
H         -1.38910       -1.31564       -1.29396
H         -2.77002       -1.31454       -3.26810
H         -1.32269       -0.39828       -3.59510
H         -1.96917       -1.78758       -5.50935
H         -0.36576       -2.19583       -4.93566
H         -1.63672       -4.18686       -5.56870
H         -1.18901       -4.24283       -3.86293
H         -3.39625       -3.51217       -3.30214
H         -3.31617       -5.76679       -5.20680
H         -3.56625       -5.60895       -2.14616
H         -3.58967       -7.09502       -3.10831
H         -2.12524       -6.11991       -3.04350
H         -5.62204       -6.26490       -3.99439
H         -5.67713       -4.52673       -3.69246
H         -5.57274       -2.75543       -5.78009
H         -4.27589       -3.55843       -6.74263
H         -5.87867       -3.26939       -7.46181

--Link1--
%chk=JID_6345.chk
%mem=8GB
%nprocshared=4
# B3LYP/6-311++G(d,p) empiricaldispersion=gd3bj scf=xqc pop=npa geom=check

CID_64629192_JID_6345_Energie_neutraal

0 1

--Link1--
%chk=JID_6345.chk
%mem=8GB
%nprocshared=4
# B3LYP/6-311++G(d,p) empiricaldispersion=gd3bj scf=xqc pop=npa geom=check

CID_64629192_JID_6345_Energie_kation

1 2

--Link1--
%chk=JID_6345.chk
%mem=8GB
%nprocshared=4
# B3LYP/6-311++G(d,p) empiricaldispersion=gd3bj scf=xqc pop=npa geom=check

CID_64629192_JID_6345_Energie_anion

-1 2
