%chk=JID_4991.chk
%mem=8GB
%nprocshared=4
# opt freq B3LYP/6-31G(d) empiricaldispersion=gd3bj scf=xqc

CID_104643985_JID_4991_neutraal

0 1
C          1.04825        0.06725        0.05612
C          0.67182       -1.08419        0.97116
O          1.59080       -1.28059        2.03805
C          2.92924       -1.63397        1.68371
C          3.07450       -3.02653        1.03926
N          3.07128       -2.95201       -0.43009
C          3.46259       -4.21616       -1.07977
C          2.52139       -5.44282       -0.93975
C          1.05866       -5.12433       -1.24231
C          3.04903       -6.53306       -1.89035
O          3.70558       -7.49504       -1.50254
O          2.74675       -6.26754       -3.19059
C          3.23243       -7.24188       -4.11543
O          2.57653       -5.94831        0.40607
H          1.25522        0.97123        0.63785
H          0.23767        0.27770       -0.64791
H          1.94702       -0.15707       -0.52511
H         -0.29310       -0.85347        1.43601
H          0.52552       -2.01289        0.41343
H          3.39453       -0.84458        1.08313
H          3.48130       -1.64994        2.63093
H          4.03668       -3.44187        1.36101
H          2.27180       -3.67688        1.39936
H          2.14678       -2.67484       -0.75132
H          3.58039       -3.97981       -2.14489
H          4.46678       -4.48765       -0.72766
H          0.93977       -4.61945       -2.20655
H          0.46210       -6.04392       -1.26883
H          0.61746       -4.49472       -0.46221
H          4.32581       -7.28082       -4.09003
H          2.80253       -8.22467       -3.89848
H          2.91953       -6.94080       -5.11902
H          3.36683       -6.52213        0.45720

--Link1--
%chk=JID_4991.chk
%mem=8GB
%nprocshared=4
# B3LYP/6-311++G(d,p) empiricaldispersion=gd3bj scf=xqc pop=npa geom=check

CID_104643985_JID_4991_Energie_neutraal

0 1

--Link1--
%chk=JID_4991.chk
%mem=8GB
%nprocshared=4
# B3LYP/6-311++G(d,p) empiricaldispersion=gd3bj scf=xqc pop=npa geom=check

CID_104643985_JID_4991_Energie_kation

1 2

--Link1--
%chk=JID_4991.chk
%mem=8GB
%nprocshared=4
# B3LYP/6-311++G(d,p) empiricaldispersion=gd3bj scf=xqc pop=npa geom=check

CID_104643985_JID_4991_Energie_anion

-1 2
