%chk=JID_6018.chk
%mem=8GB
%nprocshared=4
# opt freq B3LYP/6-31G(d) empiricaldispersion=gd3bj scf=xqc

CID_150367305_JID_6018_neutraal

0 1
C          0.65300       -1.21900        0.25200
C         -0.87943       -1.37347        0.31319
N         -1.63732       -0.13015        0.48508
C         -1.08737        0.98990       -0.29288
C          0.45273        1.05999       -0.43350
N          1.07416       -0.23502       -0.75473
C         -2.04105        0.21025        1.85666
C         -0.82198        0.49354        2.80911
O         -0.06225        1.45221        2.66714
N         -0.59352       -0.37798        3.84609
C         -1.39637       -1.55841        4.06350
C         -2.85530       -1.30522        3.70263
N         -2.97688       -0.84702        2.32086
N         -4.24704       -1.00786        1.77361
N         -4.50068       -0.46896        0.67166
N         -4.77919        0.02285       -0.32016
H          1.05530       -0.94303        1.23316
H          1.09827       -2.18696       -0.00428
H         -1.13812       -2.12566        1.06567
H         -1.20548       -1.81088       -0.64051
H         -1.49637        0.88480       -1.30701
H         -1.46643        1.95411        0.06738
H          0.91166        1.45758        0.47554
H          0.70229        1.76925       -1.23119
H          0.71647       -0.53628       -1.66180
H         -2.63360        1.13512        1.87245
H          0.24320       -0.20350        4.38989
H         -0.97196       -2.36025        3.45067
H         -1.30056       -1.84015        5.11632
H         -3.28585       -0.52839        4.34531
H         -3.43806       -2.22462        3.82458

--Link1--
%chk=JID_6018.chk
%mem=8GB
%nprocshared=4
# B3LYP/6-311++G(d,p) empiricaldispersion=gd3bj scf=xqc pop=npa geom=check

CID_150367305_JID_6018_Energie_neutraal

0 1

--Link1--
%chk=JID_6018.chk
%mem=8GB
%nprocshared=4
# B3LYP/6-311++G(d,p) empiricaldispersion=gd3bj scf=xqc pop=npa geom=check

CID_150367305_JID_6018_Energie_kation

1 2

--Link1--
%chk=JID_6018.chk
%mem=8GB
%nprocshared=4
# B3LYP/6-311++G(d,p) empiricaldispersion=gd3bj scf=xqc pop=npa geom=check

CID_150367305_JID_6018_Energie_anion

-1 2
