%chk=JID_5469.chk
%mem=8GB
%nprocshared=4
# opt freq B3LYP/6-31G(d) empiricaldispersion=gd3bj scf=xqc

CID_117271139_JID_5469_neutraal

0 1
C          0.91135        0.01267        0.04450
C          0.33933        1.32130        0.62927
C          1.15420        2.48602        0.05147
C         -1.25650        1.48076        0.52657
C         -1.63726        2.74003        1.36955
C         -3.09862        2.78769        1.79134
C         -3.41668        1.54211        2.59741
C         -3.09889        0.29091        1.79497
N         -1.75535        0.26952        1.22479
C         -1.70718        1.56616       -1.01305
C         -1.72825        3.01091       -1.57900
C         -1.86954        3.07876       -3.09591
S         -3.45725        2.40798       -3.64272
C         -3.33026        0.78295       -2.86130
C         -3.04747        0.87530       -1.36271
H          0.76250       -0.06215       -1.03584
H          0.47840       -0.87440        0.51497
H          1.99186       -0.03912        0.22397
H          0.58467        1.29136        1.70238
H          1.11040        2.50683       -1.04144
H          0.82683        3.45288        0.44153
H          2.21073        2.37892        0.32450
H         -1.38633        3.67219        0.85598
H         -1.03423        2.75588        2.28921
H         -3.27820        3.67825        2.40420
H         -3.75546        2.86225        0.91912
H         -2.83395        1.54332        3.52727
H         -4.47419        1.54231        2.88463
H         -3.19994       -0.57916        2.45423
H         -3.85933        0.15873        1.02150
H         -1.64065       -0.55827        0.64330
H         -0.95588        1.01861       -1.59312
H         -2.54424        3.58360       -1.12011
H         -0.80593        3.53765       -1.32557
H         -1.81193        4.12138       -3.42485
H         -1.05674        2.53533       -3.58914
H         -2.54709        0.20706       -3.36607
H         -4.27532        0.25433       -3.02345
H         -3.03338       -0.15940       -1.00519
H         -3.88134        1.38619       -0.86882

--Link1--
%chk=JID_5469.chk
%mem=8GB
%nprocshared=4
# B3LYP/6-311++G(d,p) empiricaldispersion=gd3bj scf=xqc pop=npa geom=check

CID_117271139_JID_5469_Energie_neutraal

0 1

--Link1--
%chk=JID_5469.chk
%mem=8GB
%nprocshared=4
# B3LYP/6-311++G(d,p) empiricaldispersion=gd3bj scf=xqc pop=npa geom=check

CID_117271139_JID_5469_Energie_kation

1 2

--Link1--
%chk=JID_5469.chk
%mem=8GB
%nprocshared=4
# B3LYP/6-311++G(d,p) empiricaldispersion=gd3bj scf=xqc pop=npa geom=check

CID_117271139_JID_5469_Energie_anion

-1 2
