%chk=JID_1543.chk
%mem=8GB
%nprocshared=4
# opt freq B3LYP/6-31G(d) empiricaldispersion=gd3bj scf=xqc

CID_88658038_JID_1543_neutraal

0 1
C          0.93591       -0.07333       -0.02270
C          0.65147       -1.36703        0.20106
C         -0.76458       -1.66656        0.54214
N         -1.82834       -1.52238       -0.18437
O         -1.51763       -1.05404       -1.46652
C          1.67968       -2.47588        0.12269
C          2.26271       -2.86209        1.49392
C          1.42301       -3.86823        2.27558
C          1.08864       -5.09601        1.43798
C          0.40067       -4.71855        0.13209
C          1.21952       -3.71178       -0.67460
H          0.16905        0.69488        0.03098
H          1.93843        0.24967       -0.28233
H         -0.91140       -2.07331        1.55487
H         -2.39447       -1.00782       -1.88951
H          2.52073       -2.05895       -0.45265
H          3.25349       -3.30708        1.32862
H          2.43100       -1.96926        2.10864
H          0.50077       -3.39827        2.63070
H          1.97377       -4.17963        3.17099
H          0.44337       -5.76972        2.01306
H          2.00995       -5.64945        1.21796
H         -0.59571       -4.31870        0.34518
H          0.24530       -5.62162       -0.46994
H          0.65656       -3.40924       -1.56616
H          2.11553       -4.22952       -1.04359

--Link1--
%chk=JID_1543.chk
%mem=8GB
%nprocshared=4
# B3LYP/6-311++G(d,p) empiricaldispersion=gd3bj scf=xqc pop=npa geom=check

CID_88658038_JID_1543_Energie_neutraal

0 1

--Link1--
%chk=JID_1543.chk
%mem=8GB
%nprocshared=4
# B3LYP/6-311++G(d,p) empiricaldispersion=gd3bj scf=xqc pop=npa geom=check

CID_88658038_JID_1543_Energie_kation

1 2

--Link1--
%chk=JID_1543.chk
%mem=8GB
%nprocshared=4
# B3LYP/6-311++G(d,p) empiricaldispersion=gd3bj scf=xqc pop=npa geom=check

CID_88658038_JID_1543_Energie_anion

-1 2
