%chk=JID_3751.chk
%mem=8GB
%nprocshared=4
# opt freq B3LYP/6-31G(d) empiricaldispersion=gd3bj scf=xqc

CID_79695647_JID_3751_neutraal

0 1
C          1.05955       -0.07160        0.03644
C          0.93944        0.09538        1.56128
C          2.11301        1.00863        2.00641
C         -0.36869        0.87002        1.92167
C         -1.71229        0.19176        1.64339
C         -2.24624       -0.61346        2.80653
O         -2.46112       -1.81489        2.76876
O         -2.51349        0.12741        3.90459
C          1.07300       -1.24184        2.35404
C          0.52241       -2.53540        1.72092
N          1.32518       -3.08805        0.61401
C          2.60337       -3.63112        1.07798
C          0.56301       -4.14446       -0.06160
H          1.00891        0.90007       -0.46913
H          0.25827       -0.68837       -0.37987
H          2.01802       -0.52583       -0.23781
H          2.06146        1.98986        1.52034
H          2.09841        1.17243        3.09009
H          3.08129        0.56425        1.74879
H         -0.31726        1.16862        2.97653
H         -0.36404        1.81064        1.35255
H         -2.46954        0.95742        1.43010
H         -1.67663       -0.44289        0.75380
H         -2.34187        1.08092        3.79295
H          2.12513       -1.40629        2.61547
H          0.57882       -1.11246        3.32680
H          0.41099       -3.29037        2.51094
H         -0.48353       -2.33047        1.34824
H          2.47243       -4.39927        1.84869
H          3.15575       -4.07726        0.24276
H          3.25037       -2.84402        1.47599
H         -0.37182       -3.74433       -0.47035
H          0.31902       -4.97387        0.61242
H          1.12684       -4.54364       -0.91205

--Link1--
%chk=JID_3751.chk
%mem=8GB
%nprocshared=4
# B3LYP/6-311++G(d,p) empiricaldispersion=gd3bj scf=xqc pop=npa geom=check

CID_79695647_JID_3751_Energie_neutraal

0 1

--Link1--
%chk=JID_3751.chk
%mem=8GB
%nprocshared=4
# B3LYP/6-311++G(d,p) empiricaldispersion=gd3bj scf=xqc pop=npa geom=check

CID_79695647_JID_3751_Energie_kation

1 2

--Link1--
%chk=JID_3751.chk
%mem=8GB
%nprocshared=4
# B3LYP/6-311++G(d,p) empiricaldispersion=gd3bj scf=xqc pop=npa geom=check

CID_79695647_JID_3751_Energie_anion

-1 2
