%chk=JID_9657.chk
%mem=8GB
%nprocshared=4
# opt freq B3LYP/6-31G(d) empiricaldispersion=gd3bj scf=xqc

CID_55148549_JID_9657_neutraal

0 1
C          0.93554       -0.00825        0.07600
C          2.30456       -0.58280        0.39581
O          2.43182       -0.63644        1.82174
C          3.66510       -0.37206        2.33099
O          4.69247       -0.25917        1.67399
C          3.61793       -0.28991        3.85653
O          2.45102        0.26868        4.45375
C          2.14617        1.54274        4.03957
C          3.09590        2.56857        4.03411
C          2.74434        3.84092        3.58520
C          1.44397        4.09303        3.15643
C          0.48692        3.07660        3.18683
C          0.81616        1.79088        3.64462
C         -0.16924        0.64121        3.60431
N         -1.56523        1.02676        3.36681
C         -2.26513        0.12334        2.45008
C         -2.23859       -1.38253        2.79242
C         -2.89077       -1.68415        4.14050
C         -2.93194       -2.17805        1.68236
H          0.81906        0.98743        0.51469
H          0.14773       -0.64555        0.48796
H          0.79075        0.06512       -1.00562
H          2.38595       -1.60192        0.00446
H          3.07715        0.04210       -0.06443
H          3.69292       -1.32139        4.22016
H          4.51383        0.22815        4.21606
H          4.11008        2.40114        4.38203
H          3.48536        4.63589        3.56861
H          1.17128        5.08134        2.79517
H         -0.51952        3.29178        2.83375
H          0.17916       -0.02914        2.81573
H         -0.12456        0.08891        4.55066
H         -2.04724        1.07096        4.26269
H         -3.30795        0.45924        2.38932
H         -1.85347        0.27476        1.44472
H         -1.20136       -1.73580        2.83181
H         -3.93490       -1.35542        4.15850
H         -2.87123       -2.76026        4.34468
H         -2.36121       -1.18720        4.95894
H         -2.44922       -1.99723        0.71560
H         -2.87708       -3.25341        1.88301
H         -3.98766       -1.90196        1.59226

--Link1--
%chk=JID_9657.chk
%mem=8GB
%nprocshared=4
# B3LYP/6-311++G(d,p) empiricaldispersion=gd3bj scf=xqc pop=npa geom=check

CID_55148549_JID_9657_Energie_neutraal

0 1

--Link1--
%chk=JID_9657.chk
%mem=8GB
%nprocshared=4
# B3LYP/6-311++G(d,p) empiricaldispersion=gd3bj scf=xqc pop=npa geom=check

CID_55148549_JID_9657_Energie_kation

1 2

--Link1--
%chk=JID_9657.chk
%mem=8GB
%nprocshared=4
# B3LYP/6-311++G(d,p) empiricaldispersion=gd3bj scf=xqc pop=npa geom=check

CID_55148549_JID_9657_Energie_anion

-1 2
