%chk=JID_6936.chk
%mem=8GB
%nprocshared=4
# opt freq B3LYP/6-31G(d) empiricaldispersion=gd3bj scf=xqc

CID_65615349_JID_6936_neutraal

0 1
C         -2.55700       -0.42200       -0.01100
C         -1.10449       -0.12402       -0.05717
C         -0.07321       -1.02987       -0.20443
S          1.43267       -0.21501       -0.19223
C          0.60976        1.28281        0.01286
N         -0.70246        1.19456        0.05582
C          1.38236        2.56581        0.13057
C          1.08445        3.53580       -1.03557
C         -0.30217        4.22288       -0.95365
C         -0.43498        5.19391        0.17526
N         -0.63629        4.88611        1.44160
C         -0.69423        6.09459        2.06559
N         -0.52796        7.14898        1.26778
N         -0.37861        6.56021        0.06579
C         -0.18322        7.39260       -1.09198
N          2.18419        4.51966       -1.16130
H         -3.00301        0.00162        0.89423
H         -3.05928        0.01280       -0.88066
H         -2.74436       -1.50035       -0.01048
H         -0.12980       -2.10338       -0.31174
H          1.17086        3.02687        1.10112
H          2.45691        2.33659        0.13881
H          1.09567        2.95356       -1.96678
H         -0.50585        4.71971       -1.90898
H         -1.09511        3.47434       -0.85695
H         -0.85808        6.20829        3.12917
H         -1.09588        7.97108       -1.25592
H          0.65945        8.06145       -0.89685
H          0.03572        6.78827       -1.97204
H          1.99376        5.17183       -1.91805
H          2.25692        5.06304       -0.29917

--Link1--
%chk=JID_6936.chk
%mem=8GB
%nprocshared=4
# B3LYP/6-311++G(d,p) empiricaldispersion=gd3bj scf=xqc pop=npa geom=check

CID_65615349_JID_6936_Energie_neutraal

0 1

--Link1--
%chk=JID_6936.chk
%mem=8GB
%nprocshared=4
# B3LYP/6-311++G(d,p) empiricaldispersion=gd3bj scf=xqc pop=npa geom=check

CID_65615349_JID_6936_Energie_kation

1 2

--Link1--
%chk=JID_6936.chk
%mem=8GB
%nprocshared=4
# B3LYP/6-311++G(d,p) empiricaldispersion=gd3bj scf=xqc pop=npa geom=check

CID_65615349_JID_6936_Energie_anion

-1 2
