%chk=JID_1272.chk
%mem=8GB
%nprocshared=4
# opt freq B3LYP/6-31G(d) empiricaldispersion=gd3bj scf=xqc

CID_84406263_JID_1272_neutraal

0 1
C          0.97664       -0.07744       -0.05879
C          0.41526       -0.96386        0.77305
C         -0.96850       -0.82831        1.34499
C         -1.90268       -1.99967        0.99612
N         -1.50552       -3.27698        1.61071
C         -1.72396       -3.43829        2.96990
C         -1.21995       -4.42066        3.72362
S         -0.15676       -5.62303        3.10382
C         -0.71087       -5.63002        1.38766
C         -0.89623       -4.24242        0.80161
O         -0.62763       -4.04236       -0.38656
H          0.45441        0.81609       -0.38510
H          1.98116       -0.23737       -0.43947
H          0.98764       -1.84264        1.06497
H         -0.88120       -0.72897        2.43342
H         -1.43306        0.09777        0.98384
H         -2.91872       -1.76769        1.34081
H         -1.96751       -2.10936       -0.09286
H         -2.31938       -2.66408        3.44967
H         -1.42347       -4.43610        4.79046
H         -1.66094       -6.16838        1.30600
H          0.03765       -6.16348        0.79352

--Link1--
%chk=JID_1272.chk
%mem=8GB
%nprocshared=4
# B3LYP/6-311++G(d,p) empiricaldispersion=gd3bj scf=xqc pop=npa geom=check

CID_84406263_JID_1272_Energie_neutraal

0 1

--Link1--
%chk=JID_1272.chk
%mem=8GB
%nprocshared=4
# B3LYP/6-311++G(d,p) empiricaldispersion=gd3bj scf=xqc pop=npa geom=check

CID_84406263_JID_1272_Energie_kation

1 2

--Link1--
%chk=JID_1272.chk
%mem=8GB
%nprocshared=4
# B3LYP/6-311++G(d,p) empiricaldispersion=gd3bj scf=xqc pop=npa geom=check

CID_84406263_JID_1272_Energie_anion

-1 2
