%chk=JID_9658.chk
%mem=8GB
%nprocshared=4
# opt freq B3LYP/6-31G(d) empiricaldispersion=gd3bj scf=xqc

CID_132395449_JID_9658_neutraal

0 1
C         -2.47500       -0.07800       -0.00600
C         -1.00096       -0.00792       -0.26656
N         -0.42001        1.20820       -0.20956
C          0.90489        1.27503       -0.45996
N          1.67320        0.20800       -0.75712
C          1.05379       -0.98467       -0.79597
C         -0.28963       -1.15269       -0.55932
C          1.54820        2.60422       -0.41829
C          0.85508        3.74282        0.03226
C          1.45776        5.00655        0.06330
C          2.78245        5.17797       -0.35846
C          3.48455        4.05491       -0.81095
C          2.87863        2.79242       -0.83420
C          3.40202        6.56226       -0.36093
C          3.04327        7.32409       -1.66419
N          3.66300        8.66650       -1.73668
C          5.11474        8.51274       -1.53065
C          5.44081        7.75959       -0.23255
O          4.83129        6.46398       -0.21069
H         -2.87778        0.91333        0.22576
H         -2.99708       -0.46020       -0.88870
H         -2.67851       -0.73519        0.84520
H          1.69209       -1.83049       -1.03369
H         -0.75439       -2.12834       -0.60409
H         -0.17749        3.65028        0.36660
H          0.87643        5.85522        0.41725
H          4.51439        4.15178       -1.14994
H          3.46107        1.94437       -1.19176
H          3.02186        7.11182        0.51123
H          3.36972        6.74875       -2.54039
H          1.95648        7.43853       -1.75054
H          3.28599        9.23598       -0.97892
H          5.53452        7.97208       -2.38749
H          5.57998        9.50374       -1.51153
H          6.52296        7.61670       -0.15056
H          5.11291        8.32622        0.64711

--Link1--
%chk=JID_9658.chk
%mem=8GB
%nprocshared=4
# B3LYP/6-311++G(d,p) empiricaldispersion=gd3bj scf=xqc pop=npa geom=check

CID_132395449_JID_9658_Energie_neutraal

0 1

--Link1--
%chk=JID_9658.chk
%mem=8GB
%nprocshared=4
# B3LYP/6-311++G(d,p) empiricaldispersion=gd3bj scf=xqc pop=npa geom=check

CID_132395449_JID_9658_Energie_kation

1 2

--Link1--
%chk=JID_9658.chk
%mem=8GB
%nprocshared=4
# B3LYP/6-311++G(d,p) empiricaldispersion=gd3bj scf=xqc pop=npa geom=check

CID_132395449_JID_9658_Energie_anion

-1 2
