%chk=JID_1391.chk
%mem=8GB
%nprocshared=4
# opt freq B3LYP/6-31G(d) empiricaldispersion=gd3bj scf=xqc

CID_84038619_JID_1391_neutraal

0 1
C          1.04386        0.08764        0.01987
N          0.48882        0.38689        1.33023
C         -0.97007        0.32869        1.35081
C         -1.51981       -1.03602        1.65369
C         -0.93215       -2.28898        1.60427
C         -1.88357       -3.23986        2.02652
C         -3.04926       -2.56668        2.33675
N         -2.83193       -1.23029        2.05982
C         -3.82594       -0.18290        2.19259
C         -4.32075       -3.12175        2.88147
N         -5.12729       -3.65582        1.79785
H          0.72471        0.83005       -0.71902
H          0.76657       -0.90745       -0.33895
H          2.13637        0.13080        0.07123
H          0.85513       -0.25644        2.02961
H         -1.29441        1.01323        2.14393
H         -1.39760        0.71026        0.41551
H          0.08591       -2.50305        1.30778
H         -1.73878       -4.30929        2.11290
H         -3.80109        0.17737        3.22375
H         -3.60457        0.62885        1.49647
H         -4.81234       -0.58216        1.94616
H         -4.09548       -3.92712        3.58973
H         -4.88523       -2.36561        3.43648
H         -6.03878       -3.92738        2.15675
H         -5.28157       -2.93245        1.10045

--Link1--
%chk=JID_1391.chk
%mem=8GB
%nprocshared=4
# B3LYP/6-311++G(d,p) empiricaldispersion=gd3bj scf=xqc pop=npa geom=check

CID_84038619_JID_1391_Energie_neutraal

0 1

--Link1--
%chk=JID_1391.chk
%mem=8GB
%nprocshared=4
# B3LYP/6-311++G(d,p) empiricaldispersion=gd3bj scf=xqc pop=npa geom=check

CID_84038619_JID_1391_Energie_kation

1 2

--Link1--
%chk=JID_1391.chk
%mem=8GB
%nprocshared=4
# B3LYP/6-311++G(d,p) empiricaldispersion=gd3bj scf=xqc pop=npa geom=check

CID_84038619_JID_1391_Energie_anion

-1 2
