%chk=JID_3254.chk
%mem=8GB
%nprocshared=4
# opt freq B3LYP/6-31G(d) empiricaldispersion=gd3bj scf=xqc

CID_79429196_JID_3254_neutraal

0 1
C          2.49600       -0.00700       -0.12600
C          1.01607       -0.06792        0.24693
C          0.24806        1.10286       -0.37717
C         -1.24198        1.02890       -0.05620
C         -1.84412       -0.30955       -0.47554
C         -1.09048       -1.49424        0.14784
C          0.40980       -1.41011       -0.18364
C         -1.69423       -2.82208       -0.33857
C         -1.11866       -4.00688        0.42045
O         -1.19231       -4.02811        1.65477
C         -0.50413       -5.19577       -0.32762
C         -0.27013       -4.99651       -1.82107
C          0.81743       -5.57692        0.34448
H          2.63791       -0.08396       -1.20935
H          2.94142        0.93619        0.20747
H          3.05008       -0.82458        0.34710
H          0.94078        0.01128        1.33970
H          0.65073        2.05381       -0.00855
H          0.38353        1.10132       -1.46634
H         -1.76843        1.84435       -0.56498
H         -1.39164        1.17539        1.02058
H         -1.82201       -0.38754       -1.57015
H         -2.89868       -0.33896       -0.17644
H         -1.20208       -1.43145        1.23894
H          0.55711       -1.55269       -1.26245
H          0.94938       -2.22182        0.31844
H         -2.77759       -2.83741       -0.16712
H         -1.55321       -2.91536       -1.41595
H         -1.21164       -6.02612       -0.20954
H          0.36694       -4.12758       -2.01712
H          0.21560       -5.87476       -2.26044
H         -1.21720       -4.85607       -2.35241
H          0.67270       -5.80960        1.40493
H          1.26046       -6.45882       -0.12996
H          1.54098       -4.75616        0.28327

--Link1--
%chk=JID_3254.chk
%mem=8GB
%nprocshared=4
# B3LYP/6-311++G(d,p) empiricaldispersion=gd3bj scf=xqc pop=npa geom=check

CID_79429196_JID_3254_Energie_neutraal

0 1

--Link1--
%chk=JID_3254.chk
%mem=8GB
%nprocshared=4
# B3LYP/6-311++G(d,p) empiricaldispersion=gd3bj scf=xqc pop=npa geom=check

CID_79429196_JID_3254_Energie_kation

1 2

--Link1--
%chk=JID_3254.chk
%mem=8GB
%nprocshared=4
# B3LYP/6-311++G(d,p) empiricaldispersion=gd3bj scf=xqc pop=npa geom=check

CID_79429196_JID_3254_Energie_anion

-1 2
