%chk=JID_6362.chk
%mem=8GB
%nprocshared=4
# opt freq B3LYP/6-31G(d) empiricaldispersion=gd3bj scf=xqc

CID_43186537_JID_6362_neutraal

0 1
C          1.03821        0.07139        0.05867
C         -0.01380        1.18685        0.04910
C         -1.05033        1.00833        1.16818
C         -0.49945        1.37004        2.54395
C          0.08097        2.77853        2.52491
C          1.12402        2.93999        1.42507
N          0.62317        2.51576        0.11877
C          1.13909        3.17860       -1.00199
O          1.99247        4.06316       -0.93479
C          0.68506        2.78785       -2.35368
C          1.64669        2.29653       -3.24567
C          1.27829        1.94788       -4.54527
C         -0.04503        2.10468       -4.95936
C         -1.00236        2.61865       -4.08070
C         -0.63514        2.96830       -2.78008
O         -1.57154        3.48748       -1.93082
H          0.56133       -0.91011       -0.03272
H          1.63300        0.07290        0.97726
H          1.73414        0.18493       -0.77920
H         -0.55214        1.09074       -0.89725
H         -1.90860        1.66002        0.95698
H         -1.43176       -0.01931        1.17731
H          0.27141        0.65178        2.84554
H         -1.30008        1.31029        3.28977
H          0.52677        3.01258        3.49792
H         -0.73097        3.49837        2.36121
H          2.01678        2.34460        1.64926
H          1.43978        3.98855        1.38781
H          2.68136        2.19501       -2.92599
H          2.02479        1.56424       -5.23652
H         -0.32891        1.83594       -5.97434
H         -2.02390        2.74132       -4.42822
H         -2.37971        3.68872       -2.42989

--Link1--
%chk=JID_6362.chk
%mem=8GB
%nprocshared=4
# B3LYP/6-311++G(d,p) empiricaldispersion=gd3bj scf=xqc pop=npa geom=check

CID_43186537_JID_6362_Energie_neutraal

0 1

--Link1--
%chk=JID_6362.chk
%mem=8GB
%nprocshared=4
# B3LYP/6-311++G(d,p) empiricaldispersion=gd3bj scf=xqc pop=npa geom=check

CID_43186537_JID_6362_Energie_kation

1 2

--Link1--
%chk=JID_6362.chk
%mem=8GB
%nprocshared=4
# B3LYP/6-311++G(d,p) empiricaldispersion=gd3bj scf=xqc pop=npa geom=check

CID_43186537_JID_6362_Energie_anion

-1 2
