%chk=JID_5518.chk
%mem=8GB
%nprocshared=4
# opt freq B3LYP/6-31G(d) empiricaldispersion=gd3bj scf=xqc

CID_80505352_JID_5518_neutraal

0 1
C          0.93672        0.07704        0.00786
C          0.72322        0.91760        1.25759
C          1.07991        2.39407        1.06906
C          0.27586        3.13653       -0.00310
C         -1.24244        3.14861        0.20074
C         -1.72863        3.77217        1.51341
C         -1.28063        5.21676        1.77198
C         -1.65432        6.22255        0.68122
N         -3.09078        6.32549        0.54221
C         -3.76223        7.43521        0.91708
N         -3.24703        8.53335        1.42951
N         -4.19313        9.50384        1.69137
C         -5.40400        9.10699        1.36905
S         -5.47598        7.51454        0.73580
C         -6.63366        9.92207        1.52632
H          0.24603        0.36332       -0.79065
H          0.76288       -0.98023        0.23252
H          1.96060        0.18001       -0.36508
H         -0.31325        0.81413        1.59631
H          1.35194        0.51226        2.05974
H          0.96743        2.90694        2.03138
H          2.14417        2.46875        0.81173
H          0.64399        4.16783       -0.05879
H          0.48996        2.69776       -0.98503
H         -1.70094        3.67874       -0.64262
H         -1.62586        2.12303        0.14113
H         -2.82461        3.72710        1.52993
H         -1.39646        3.15166        2.35440
H         -1.71533        5.54318        2.72559
H         -0.19336        5.23854        1.91033
H         -1.19708        7.18973        0.92338
H         -1.22618        5.92423       -0.28128
H         -3.59124        5.52982        0.16755
H         -7.24611        9.89719        0.61931
H         -7.23342        9.55449        2.36473
H         -6.37651       10.96726        1.72641

--Link1--
%chk=JID_5518.chk
%mem=8GB
%nprocshared=4
# B3LYP/6-311++G(d,p) empiricaldispersion=gd3bj scf=xqc pop=npa geom=check

CID_80505352_JID_5518_Energie_neutraal

0 1

--Link1--
%chk=JID_5518.chk
%mem=8GB
%nprocshared=4
# B3LYP/6-311++G(d,p) empiricaldispersion=gd3bj scf=xqc pop=npa geom=check

CID_80505352_JID_5518_Energie_kation

1 2

--Link1--
%chk=JID_5518.chk
%mem=8GB
%nprocshared=4
# B3LYP/6-311++G(d,p) empiricaldispersion=gd3bj scf=xqc pop=npa geom=check

CID_80505352_JID_5518_Energie_anion

-1 2
