%chk=JID_2115.chk
%mem=8GB
%nprocshared=4
# opt freq B3LYP/6-31G(d) empiricaldispersion=gd3bj scf=xqc

CID_88145939_JID_2115_neutraal

0 1
C          0.91475       -0.03282       -0.04069
C         -0.31365        0.85222        0.17851
C         -1.17499        0.35861        1.34192
C         -0.58287        0.67623        2.71409
C         -0.30181        2.18208        2.90331
C          0.56441        2.72360        1.73814
C          0.03501        2.33580        0.35343
O          1.92815        2.33397        1.86232
C          0.31014        2.48747        4.31416
C          0.60861        3.98818        4.47955
C         -0.61840        2.05028        5.47353
S         -0.02482        0.54849        6.32086
H          0.60470       -1.04678       -0.31710
H          1.54203       -0.11968        0.84851
H          1.53294        0.35583       -0.85670
H         -0.91425        0.76726       -0.73750
H         -2.16425        0.82992        1.27254
H         -1.34281       -0.72179        1.25699
H          0.33273        0.09467        2.86986
H         -1.30464        0.33041        3.46114
H         -1.27146        2.69782        2.84273
H          0.56431        3.81875        1.77299
H          0.75555        2.63486       -0.41779
H         -0.88018        2.91527        0.17152
H          1.96978        1.41454        2.16868
H          1.27479        1.96952        4.39486
H         -0.29120        4.59060        4.31581
H          0.98331        4.20191        5.48695
H          1.38228        4.32618        3.78417
H         -0.67265        2.82184        6.24894
H         -1.64431        1.88089        5.13180
H         -0.13553       -0.28991        5.28224

--Link1--
%chk=JID_2115.chk
%mem=8GB
%nprocshared=4
# B3LYP/6-311++G(d,p) empiricaldispersion=gd3bj scf=xqc pop=npa geom=check

CID_88145939_JID_2115_Energie_neutraal

0 1

--Link1--
%chk=JID_2115.chk
%mem=8GB
%nprocshared=4
# B3LYP/6-311++G(d,p) empiricaldispersion=gd3bj scf=xqc pop=npa geom=check

CID_88145939_JID_2115_Energie_kation

1 2

--Link1--
%chk=JID_2115.chk
%mem=8GB
%nprocshared=4
# B3LYP/6-311++G(d,p) empiricaldispersion=gd3bj scf=xqc pop=npa geom=check

CID_88145939_JID_2115_Energie_anion

-1 2
