%chk=JID_10094.chk
%mem=8GB
%nprocshared=4
# opt freq B3LYP/6-31G(d) empiricaldispersion=gd3bj scf=xqc

CID_434831_JID_10094_neutraal

0 1
C         -1.15400       -1.45600        0.00400
C          0.01039       -0.77533        0.01733
C          1.28077       -1.48418        0.00493
C          2.43531       -0.79728        0.05372
C          2.47881        0.72355        0.12686
C          1.10863        1.38184        0.04427
C         -0.04952        0.69623        0.00543
C         -1.32105        1.40189       -0.02735
C         -2.46612        0.69505       -0.02925
C         -2.51072       -0.79455       -0.00492
O         -3.20570       -1.25046       -1.16613
S         -3.95523        1.57093       -0.06244
O         -4.02447        2.46065        1.07546
O         -4.18850        2.04656       -1.40944
O         -5.02695        0.38906        0.17985
S          3.25099        1.24837        1.71038
O          4.55095        0.64027        1.89980
O          3.07289        2.67430        1.89498
O          2.27773        0.50039        2.76676
O          3.65665       -1.43070       -0.06568
H         -1.16253       -2.54311        0.01360
H          1.26873       -2.56619       -0.07796
H          3.11692        1.11713       -0.67214
H          1.10801        2.47080        0.04851
H         -1.32418        2.48995       -0.03674
H         -3.06182       -1.13912        0.87722
H         -2.56985       -1.22838       -1.90615
H         -5.10259       -0.13718       -0.64845
H          2.82017       -0.16440        3.24244
H          3.52622       -2.39090       -0.16076

--Link1--
%chk=JID_10094.chk
%mem=8GB
%nprocshared=4
# B3LYP/6-311++G(d,p) empiricaldispersion=gd3bj scf=xqc pop=npa geom=check

CID_434831_JID_10094_Energie_neutraal

0 1

--Link1--
%chk=JID_10094.chk
%mem=8GB
%nprocshared=4
# B3LYP/6-311++G(d,p) empiricaldispersion=gd3bj scf=xqc pop=npa geom=check

CID_434831_JID_10094_Energie_kation

1 2

--Link1--
%chk=JID_10094.chk
%mem=8GB
%nprocshared=4
# B3LYP/6-311++G(d,p) empiricaldispersion=gd3bj scf=xqc pop=npa geom=check

CID_434831_JID_10094_Energie_anion

-1 2
