%chk=JID_5510.chk
%mem=8GB
%nprocshared=4
# opt freq B3LYP/6-31G(d) empiricaldispersion=gd3bj scf=xqc

CID_73298573_JID_5510_neutraal

0 1
C          1.00407       -0.09563        0.02895
C          0.49924       -0.66406        1.35922
C          1.20538        0.05419        2.51577
C         -1.04671       -0.60711        1.43062
C         -1.66355       -1.40758        2.59279
C         -2.97269       -0.64132        2.81255
N         -2.54578        0.73682        2.65709
N         -1.56459        0.77270        1.58678
N         -3.53883       -0.74885        4.13495
C         -1.79591       -2.89147        2.30097
C         -2.74235       -3.40117        1.39847
C         -2.81292       -4.77124        1.13567
C         -1.93411       -5.65030        1.76189
C         -0.98250       -5.16069        2.65250
C         -0.91387       -3.79206        2.91962
H          0.76007        0.96676       -0.07573
H          0.55972       -0.63177       -0.81634
H          2.09172       -0.19945       -0.04925
H          0.80322       -1.71796        1.39210
H          0.98493        1.12692        2.52212
H          0.91878       -0.35855        3.48662
H          2.29192       -0.05597        2.42671
H         -1.44599       -0.99604        0.48284
H         -1.04915       -1.28885        3.49639
H         -3.73443       -0.88342        2.06363
H         -3.35849        1.33698        2.50777
H         -1.96475        1.08497        0.69741
H         -3.55442       -1.73114        4.40407
H         -2.88396       -0.29460        4.77035
H         -3.43269       -2.74346        0.87660
H         -3.55284       -5.15148        0.43540
H         -1.98706       -6.71535        1.55238
H         -0.28968       -5.84380        3.13672
H         -0.15506       -3.43201        3.61237

--Link1--
%chk=JID_5510.chk
%mem=8GB
%nprocshared=4
# B3LYP/6-311++G(d,p) empiricaldispersion=gd3bj scf=xqc pop=npa geom=check

CID_73298573_JID_5510_Energie_neutraal

0 1

--Link1--
%chk=JID_5510.chk
%mem=8GB
%nprocshared=4
# B3LYP/6-311++G(d,p) empiricaldispersion=gd3bj scf=xqc pop=npa geom=check

CID_73298573_JID_5510_Energie_kation

1 2

--Link1--
%chk=JID_5510.chk
%mem=8GB
%nprocshared=4
# B3LYP/6-311++G(d,p) empiricaldispersion=gd3bj scf=xqc pop=npa geom=check

CID_73298573_JID_5510_Energie_anion

-1 2
