%chk=JID_4401.chk
%mem=8GB
%nprocshared=4
# opt freq B3LYP/6-31G(d) empiricaldispersion=gd3bj scf=xqc

CID_65259568_JID_4401_neutraal

0 1
C          1.00023        0.06499        0.07600
C          0.45140       -0.42613       -1.27369
C          0.73718       -1.92915       -1.41284
C         -1.05911       -0.18719       -1.29557
S          1.44646        0.44411       -2.57697
C          0.23092        1.20469       -3.71236
C          0.23824        0.54340       -5.09602
C         -0.52951       -0.78602       -5.18118
C         -1.97406       -0.72170       -5.74379
C         -1.98544       -0.28670       -7.22106
C         -2.58588       -2.13671       -5.67795
C         -2.81768        0.26819       -4.94737
O         -2.85552        1.47759       -5.11316
O         -3.52428       -0.28115       -3.94312
H          0.50295       -0.44691        0.90878
H          0.83431        1.14043        0.21179
H          2.07463       -0.12949        0.17928
H          0.23031       -2.49592       -0.62265
H          0.38392       -2.32527       -2.37062
H          1.80769       -2.15199       -1.32867
H         -1.30702        0.87410       -1.18653
H         -1.51785       -0.57109       -2.20952
H         -1.54524       -0.71070       -0.46302
H         -0.77316        1.27561       -3.29868
H          0.57299        2.23838       -3.84001
H         -0.16105        1.26104       -5.81962
H          1.27723        0.37118       -5.40730
H          0.05057       -1.45774       -5.82936
H         -0.54329       -1.26801       -4.19953
H         -1.36880       -0.95242       -7.83512
H         -3.00473       -0.30652       -7.62529
H         -1.61448        0.73356       -7.35968
H         -2.56305       -2.53901       -4.65838
H         -3.63235       -2.13260       -6.00445
H         -2.03627       -2.83623       -6.31797
H         -3.99053        0.47975       -3.53705

--Link1--
%chk=JID_4401.chk
%mem=8GB
%nprocshared=4
# B3LYP/6-311++G(d,p) empiricaldispersion=gd3bj scf=xqc pop=npa geom=check

CID_65259568_JID_4401_Energie_neutraal

0 1

--Link1--
%chk=JID_4401.chk
%mem=8GB
%nprocshared=4
# B3LYP/6-311++G(d,p) empiricaldispersion=gd3bj scf=xqc pop=npa geom=check

CID_65259568_JID_4401_Energie_kation

1 2

--Link1--
%chk=JID_4401.chk
%mem=8GB
%nprocshared=4
# B3LYP/6-311++G(d,p) empiricaldispersion=gd3bj scf=xqc pop=npa geom=check

CID_65259568_JID_4401_Energie_anion

-1 2
