%chk=JID_8253.chk
%mem=8GB
%nprocshared=4
# opt freq B3LYP/6-31G(d) empiricaldispersion=gd3bj scf=xqc

CID_107853910_JID_8253_neutraal

0 1
C          1.44200        0.04700       -0.00300
C          0.61872        1.16696        0.07679
C         -0.76328        0.98887        0.11967
N         -1.33381       -0.23998        0.07200
C         -0.51704       -1.32231       -0.00624
C          0.86939       -1.22018       -0.04485
C         -1.20379       -2.65285       -0.05157
O         -2.40209       -2.86819       -0.03240
O         -0.33700       -3.68775       -0.12099
C         -1.69215        2.19204        0.17805
N         -2.32994        2.44335       -1.11611
C         -3.07606        3.73055       -1.23113
C         -2.12228        4.93477       -1.43485
O         -1.17341        4.68461       -2.47090
C         -3.95220        3.55616       -2.50302
O         -4.75122        2.37297       -2.37485
C         -4.00712        4.04592       -0.02104
O         -4.88176        2.97581        0.32050
H          2.52257        0.15972       -0.03270
H          1.05669        2.15948        0.10896
H          1.49789       -2.10213       -0.10720
H         -0.93414       -4.46634       -0.14118
H         -2.44745        1.98389        0.94376
H         -1.12008        3.06564        0.51049
H         -1.65117        2.37132       -1.87327
H         -2.68918        5.82845       -1.71845
H         -1.56903        5.17401       -0.51978
H         -0.44488        4.17321       -2.08029
H         -4.62718        4.40649       -2.64611
H         -3.34546        3.44991       -3.40939
H         -4.10985        1.67833       -2.10399
H         -3.42049        4.28406        0.87291
H         -4.62910        4.92204       -0.23788
H         -5.19288        2.57855       -0.51979

--Link1--
%chk=JID_8253.chk
%mem=8GB
%nprocshared=4
# B3LYP/6-311++G(d,p) empiricaldispersion=gd3bj scf=xqc pop=npa geom=check

CID_107853910_JID_8253_Energie_neutraal

0 1

--Link1--
%chk=JID_8253.chk
%mem=8GB
%nprocshared=4
# B3LYP/6-311++G(d,p) empiricaldispersion=gd3bj scf=xqc pop=npa geom=check

CID_107853910_JID_8253_Energie_kation

1 2

--Link1--
%chk=JID_8253.chk
%mem=8GB
%nprocshared=4
# B3LYP/6-311++G(d,p) empiricaldispersion=gd3bj scf=xqc pop=npa geom=check

CID_107853910_JID_8253_Energie_anion

-1 2
