%chk=JID_9109.chk
%mem=8GB
%nprocshared=4
# opt freq B3LYP/6-31G(d) empiricaldispersion=gd3bj scf=xqc

CID_81944522_JID_9109_neutraal

0 1
C          1.05326        0.08455        0.00383
C          0.66875        1.37610        0.72503
C          0.96852        2.70842       -0.04920
C          0.42611        2.57009       -1.48471
C          0.21430        3.86469        0.66957
N          0.63505        4.13630        2.04113
C          2.49748        2.95737       -0.05322
O          3.27426        2.18469        0.52002
N          3.09020        4.01640       -0.66599
C          2.61294        5.01344       -1.60561
C          3.26335        6.37782       -1.38366
C          3.02750        7.13688       -2.68793
C          2.69088        6.08768       -3.75436
C          2.90400        4.71738       -3.09395
N          4.20808        4.12525       -3.34839
C          4.44434        2.78022       -3.47237
C          5.79588        2.66956       -3.69554
N          6.38319        3.90547       -3.72348
C          5.40706        4.75910       -3.51345
H          0.43607       -0.07789       -0.88477
H          0.89425       -0.77082        0.66903
H          2.10302        0.07911       -0.30074
H         -0.40523        1.31880        0.94668
H          1.18012        1.38124        1.69587
H         -0.55969        2.09028       -1.48840
H          0.28993        3.53449       -1.97894
H          1.09847        1.97475       -2.11221
H          0.30782        4.80137        0.11590
H         -0.85900        3.63532        0.68430
H          0.01224        4.82058        2.46848
H          0.57052        3.29520        2.61369
H          4.09856        3.95458       -0.54816
H          1.53706        5.14274       -1.48766
H          2.83289        6.90098       -0.52324
H          4.33883        6.28099       -1.19258
H          3.91211        7.72048       -2.96336
H          2.19506        7.84155       -2.58102
H          3.27317        6.23167       -4.67026
H          1.63356        6.19611       -4.02783
H          2.17382        4.00396       -3.49499
H          3.66611        2.03593       -3.37724
H          6.37566        1.76629       -3.83495
H          5.52937        5.83318       -3.47396

--Link1--
%chk=JID_9109.chk
%mem=8GB
%nprocshared=4
# B3LYP/6-311++G(d,p) empiricaldispersion=gd3bj scf=xqc pop=npa geom=check

CID_81944522_JID_9109_Energie_neutraal

0 1

--Link1--
%chk=JID_9109.chk
%mem=8GB
%nprocshared=4
# B3LYP/6-311++G(d,p) empiricaldispersion=gd3bj scf=xqc pop=npa geom=check

CID_81944522_JID_9109_Energie_kation

1 2

--Link1--
%chk=JID_9109.chk
%mem=8GB
%nprocshared=4
# B3LYP/6-311++G(d,p) empiricaldispersion=gd3bj scf=xqc pop=npa geom=check

CID_81944522_JID_9109_Energie_anion

-1 2
