%chk=JID_9998.chk
%mem=8GB
%nprocshared=4
# opt freq B3LYP/6-31G(d) empiricaldispersion=gd3bj scf=xqc

CID_101388671_JID_9998_neutraal

0 1
C          0.93660        0.04218        0.06482
C          0.36916        1.12863        0.96573
C          0.49406        2.52985        0.36517
C         -0.44896        2.84839       -0.81271
C         -1.90569        2.97129       -0.39961
C         -2.44617        4.12120        0.04605
C         -3.88062        4.26152        0.49111
O         -4.49421        3.01309        0.85789
C         -4.07928        1.90599        0.16538
C         -2.84437        1.83106       -0.49612
C         -2.56650        0.65485       -1.20294
C         -3.46464       -0.41966       -1.20006
C         -4.66315       -0.34755       -0.49356
C         -4.97101        0.82531        0.18706
O         -5.43739       -1.47196       -0.55799
C         -6.62545       -1.47561        0.22405
C         -4.72315        4.91736       -0.61010
C         -3.93411        5.12783        1.75683
O         -0.01814        4.08720       -1.39964
H          0.41849       -0.00780       -0.89502
H          0.84166       -0.93495        0.54911
H          1.99923        0.21725       -0.13240
H         -0.67029        0.90084        1.22029
H          0.92730        1.10880        1.90998
H          0.32352        3.26428        1.16455
H          1.53242        2.69592        0.04810
H         -0.31405        2.11743       -1.61110
H         -1.84369        5.02355        0.09158
H         -1.65691        0.53665       -1.78101
H         -3.22010       -1.32430       -1.75227
H         -5.89853        0.94267        0.73628
H         -6.40009       -1.34468        1.28778
H         -7.33041       -0.71547       -0.12803
H         -7.10183       -2.45328        0.10305
H         -4.73272        4.30626       -1.52038
H         -5.76840        5.01438       -0.29429
H         -4.34690        5.91222       -0.87268
H         -4.96458        5.22622        2.11855
H         -3.36448        4.66556        2.57219
H         -3.53406        6.13317        1.58442
H          0.23920        4.68148       -0.67640

--Link1--
%chk=JID_9998.chk
%mem=8GB
%nprocshared=4
# B3LYP/6-311++G(d,p) empiricaldispersion=gd3bj scf=xqc pop=npa geom=check

CID_101388671_JID_9998_Energie_neutraal

0 1

--Link1--
%chk=JID_9998.chk
%mem=8GB
%nprocshared=4
# B3LYP/6-311++G(d,p) empiricaldispersion=gd3bj scf=xqc pop=npa geom=check

CID_101388671_JID_9998_Energie_kation

1 2

--Link1--
%chk=JID_9998.chk
%mem=8GB
%nprocshared=4
# B3LYP/6-311++G(d,p) empiricaldispersion=gd3bj scf=xqc pop=npa geom=check

CID_101388671_JID_9998_Energie_anion

-1 2
