%chk=JID_4653.chk
%mem=8GB
%nprocshared=4
# opt freq B3LYP/6-31G(d) empiricaldispersion=gd3bj scf=xqc

CID_88442291_JID_4653_neutraal

0 1
C          0.99856       -0.02483        0.09686
C          0.14293       -0.33105       -1.12185
C          0.69276       -1.47018       -1.98344
C          0.79698       -2.83488       -1.29393
C         -0.50386       -3.37332       -0.68997
C         -1.69251       -3.49324       -1.66000
C         -1.42005       -4.37961       -2.89038
C         -0.93379       -5.81352       -2.63190
C         -1.90616       -6.75465       -1.91742
C         -3.22681       -6.93963       -2.64915
O         -2.82370       -4.03373       -0.96521
C         -3.59753       -3.04754       -0.27117
C         -4.70186       -3.77756        0.48573
O         -4.12040       -4.68174        1.42462
H          1.00047       -0.85862        0.80500
H          0.60696        0.85365        0.61971
H          2.03289        0.18650       -0.19220
H         -0.88197       -0.55004       -0.80363
H          0.08719        0.57199       -1.74184
H          0.06707       -1.56189       -2.87886
H          1.69113       -1.19120       -2.34379
H          1.18952       -3.55844       -2.01812
H          1.55016       -2.78077       -0.49842
H         -0.30639       -4.35205       -0.23423
H         -0.78697       -2.73889        0.15770
H         -1.96196       -2.49891       -2.03741
H         -2.33329       -4.42445       -3.49620
H         -0.67036       -3.88420       -3.51939
H         -0.68385       -6.25883       -3.60397
H          0.00627       -5.78915       -2.06931
H         -1.42420       -7.73609       -1.82709
H         -2.09182       -6.41529       -0.89368
H         -3.06135       -7.26353       -3.68164
H         -3.83016       -7.70341       -2.14810
H         -3.81248       -6.01619       -2.66664
H         -2.96114       -2.50709        0.43582
H         -4.03205       -2.34670       -0.99122
H         -5.33679       -3.07340        1.03013
H         -5.32188       -4.36585       -0.19791
H         -3.44058       -5.16834        0.91781

--Link1--
%chk=JID_4653.chk
%mem=8GB
%nprocshared=4
# B3LYP/6-311++G(d,p) empiricaldispersion=gd3bj scf=xqc pop=npa geom=check

CID_88442291_JID_4653_Energie_neutraal

0 1

--Link1--
%chk=JID_4653.chk
%mem=8GB
%nprocshared=4
# B3LYP/6-311++G(d,p) empiricaldispersion=gd3bj scf=xqc pop=npa geom=check

CID_88442291_JID_4653_Energie_kation

1 2

--Link1--
%chk=JID_4653.chk
%mem=8GB
%nprocshared=4
# B3LYP/6-311++G(d,p) empiricaldispersion=gd3bj scf=xqc pop=npa geom=check

CID_88442291_JID_4653_Energie_anion

-1 2
