%chk=JID_10320.chk
%mem=8GB
%nprocshared=4
# opt freq B3LYP/6-31G(d) empiricaldispersion=gd3bj scf=xqc

CID_115995456_JID_10320_neutraal

0 1
C          0.97917       -0.03994        0.08928
C          0.79983        1.11089       -0.89643
C          1.48821        0.84609       -2.25813
C          0.82290       -0.32773       -2.98573
C         -0.48969       -0.11332       -3.48513
C         -1.23520       -1.12284       -4.09251
C         -0.70092       -2.39378       -4.20625
C          0.57480       -2.65351       -3.70729
C          1.35288       -1.64250       -3.09491
N          2.64272       -2.02888       -2.60549
C          3.06084       -3.30811       -2.28677
C          4.36614       -3.22367       -1.87084
C          4.69370       -1.85686       -1.97389
N          3.64889       -1.14314       -2.43081
C          5.97637       -1.22647       -1.63823
O          6.94866       -1.83811       -1.21075
N          6.00529        0.12575       -1.83763
N          1.47415        2.11183       -3.01987
C          2.42082        2.16530       -4.13036
C          1.83987        1.70552       -5.45951
H          0.46711       -0.94569       -0.24807
H          0.55745        0.23369        1.06193
H          2.03878       -0.27183        0.23598
H         -0.27097        1.31424       -1.02134
H          1.23557        2.00982       -0.43991
H          2.52973        0.66804       -2.01430
H         -0.96154        0.86255       -3.38683
H         -2.23348       -0.91242       -4.46746
H         -1.27294       -3.18606       -4.68237
H          0.95523       -3.66270       -3.84570
H          2.39739       -4.15821       -2.33287
H          5.00145       -4.02750       -1.52458
H          5.16831        0.58792       -2.17441
H          6.83822        0.64780       -1.61693
H          0.53697        2.35810       -3.32065
H          2.71408        3.21545       -4.24593
H          3.34523        1.62047       -3.90760
H          0.90243        2.22482       -5.68532
H          2.54388        1.92649       -6.26873
H          1.65361        0.62892       -5.47399

--Link1--
%chk=JID_10320.chk
%mem=8GB
%nprocshared=4
# B3LYP/6-311++G(d,p) empiricaldispersion=gd3bj scf=xqc pop=npa geom=check

CID_115995456_JID_10320_Energie_neutraal

0 1

--Link1--
%chk=JID_10320.chk
%mem=8GB
%nprocshared=4
# B3LYP/6-311++G(d,p) empiricaldispersion=gd3bj scf=xqc pop=npa geom=check

CID_115995456_JID_10320_Energie_kation

1 2

--Link1--
%chk=JID_10320.chk
%mem=8GB
%nprocshared=4
# B3LYP/6-311++G(d,p) empiricaldispersion=gd3bj scf=xqc pop=npa geom=check

CID_115995456_JID_10320_Energie_anion

-1 2
