%chk=JID_10024.chk
%mem=8GB
%nprocshared=4
# opt freq B3LYP/6-31G(d) empiricaldispersion=gd3bj scf=xqc

CID_145616061_JID_10024_neutraal

0 1
C          1.34400       -0.22500        0.03600
C          0.88418        1.08837        0.01177
C         -0.48615        1.34499       -0.06604
C         -1.41853        0.29491       -0.12018
C         -0.93472       -1.02248       -0.08067
C          0.43628       -1.28097       -0.00485
C         -2.85699        0.57317       -0.24022
C         -3.34522        1.35564       -1.29631
C         -4.71068        1.63199       -1.42122
C         -5.63082        1.13546       -0.49042
C         -5.14955        0.34765        0.56300
C         -3.78145        0.06975        0.68573
C         -7.07209        1.40963       -0.58419
C         -7.61491        2.18377       -1.47928
C         -8.13907        2.96190       -2.37530
O         -9.30499        2.67372       -3.03660
C        -10.20625        1.74530       -2.41064
N         -9.90342        0.30706       -2.49063
C         -9.65037       -0.07202       -3.57165
S         -9.31624       -0.62054       -5.02824
H          2.41049       -0.42691        0.09230
H          1.58962        1.91397        0.05166
H         -0.82772        2.37814       -0.08054
H         -1.62700       -1.86049       -0.12980
H          0.79424       -2.30700        0.01544
H         -2.66020        1.75009       -2.04449
H         -5.03825        2.23838       -2.26182
H         -5.83136       -0.05783        1.30741
H         -3.44010       -0.53569        1.52322
H         -7.71737        0.92743        0.14351
H         -7.56974        3.71736       -2.90126
H        -10.34143        2.02214       -1.35624
H        -11.18744        1.91942       -2.87305

--Link1--
%chk=JID_10024.chk
%mem=8GB
%nprocshared=4
# B3LYP/6-311++G(d,p) empiricaldispersion=gd3bj scf=xqc pop=npa geom=check

CID_145616061_JID_10024_Energie_neutraal

0 1

--Link1--
%chk=JID_10024.chk
%mem=8GB
%nprocshared=4
# B3LYP/6-311++G(d,p) empiricaldispersion=gd3bj scf=xqc pop=npa geom=check

CID_145616061_JID_10024_Energie_kation

1 2

--Link1--
%chk=JID_10024.chk
%mem=8GB
%nprocshared=4
# B3LYP/6-311++G(d,p) empiricaldispersion=gd3bj scf=xqc pop=npa geom=check

CID_145616061_JID_10024_Energie_anion

-1 2
