%chk=JID_10144.chk
%mem=8GB
%nprocshared=4
# opt freq B3LYP/6-31G(d) empiricaldispersion=gd3bj scf=xqc

CID_91960744_JID_10144_neutraal

0 1
C         -2.53900       -0.00300       -0.12500
C         -1.03229       -0.11636        0.09279
C         -0.34831        1.23636       -0.14457
C          1.17627        1.13198       -0.05125
N          1.64350        0.08818       -0.95068
C          1.08195       -1.24668       -0.72584
C         -0.44028       -1.18447       -0.83459
C          2.95858        0.07583       -1.41474
N          3.22040       -0.74744       -2.47106
C          4.42256       -0.79642       -3.07770
N          5.48163       -0.07670       -2.68510
C          5.23435        0.70541       -1.63036
C          4.03956        0.85046       -0.94643
C          4.30605        1.78392        0.10213
C          5.62774        2.18258        0.01360
N          6.17403        1.51245       -1.05241
C          6.41684        3.12131        0.84704
N          4.57142       -1.66147       -4.17260
C          5.61076       -1.25476       -5.10389
C          3.31015       -2.09573       -4.75533
H         -2.97299        0.74373        0.54827
H         -2.77408        0.29199       -1.15336
H         -3.03280       -0.96007        0.07362
H         -0.85522       -0.41855        1.13339
H         -0.61888        1.61319       -1.14002
H         -0.70829        1.97337        0.58311
H          1.47659        0.91432        0.98081
H          1.58022        2.11037       -0.33434
H          1.37378       -1.60568        0.26979
H          1.43415       -1.98945       -1.45127
H         -0.86328       -2.16692       -0.59329
H         -0.71527       -0.96421       -1.87447
H          3.61402        2.12700        0.85830
H          7.12670        1.57565       -1.37919
H          5.86645        4.05568        0.99611
H          6.61773        2.67969        1.82817
H          7.37621        3.36624        0.37990
H          5.67913       -1.97001       -5.93154
H          5.40037       -0.26851       -5.53445
H          6.59827       -1.23881       -4.62895
H          2.70135       -2.65272       -4.03335
H          2.73056       -1.24895       -5.14191
H          3.49503       -2.77995       -5.59130

--Link1--
%chk=JID_10144.chk
%mem=8GB
%nprocshared=4
# B3LYP/6-311++G(d,p) empiricaldispersion=gd3bj scf=xqc pop=npa geom=check

CID_91960744_JID_10144_Energie_neutraal

0 1

--Link1--
%chk=JID_10144.chk
%mem=8GB
%nprocshared=4
# B3LYP/6-311++G(d,p) empiricaldispersion=gd3bj scf=xqc pop=npa geom=check

CID_91960744_JID_10144_Energie_kation

1 2

--Link1--
%chk=JID_10144.chk
%mem=8GB
%nprocshared=4
# B3LYP/6-311++G(d,p) empiricaldispersion=gd3bj scf=xqc pop=npa geom=check

CID_91960744_JID_10144_Energie_anion

-1 2
