%chk=JID_4193.chk
%mem=8GB
%nprocshared=4
# opt freq B3LYP/6-31G(d) empiricaldispersion=gd3bj scf=xqc

CID_142495702_JID_4193_neutraal

0 1
C          0.92238        0.00095        0.06305
C          1.27686        1.10666        1.03953
C          1.56971        2.45252        0.37521
C          0.50869        3.02561       -0.57625
C         -0.96179        2.94123       -0.12426
C         -1.79208        4.25570        0.02589
C         -1.49217        5.26485       -1.10704
C         -3.31989        3.90644       -0.09351
C         -3.87138        2.72394        0.72374
C         -3.80962        2.83010        2.24845
C         -4.58191        3.99984        2.86180
C         -6.07771        3.94563        2.59257
N         -1.63231        4.94391        1.31951
C         -0.29012        5.07852        1.84578
H         -0.02018        0.20286       -0.45334
H          0.81133       -0.94916        0.59550
H          1.70753       -0.12376       -0.68943
H          0.47821        1.21139        1.78139
H          2.16886        0.80283        1.60132
H          1.78066        3.18282        1.16321
H          2.50671        2.36268       -0.19071
H          0.80450        4.04881       -0.82013
H          0.59161        2.47501       -1.52372
H         -1.46465        2.32776       -0.88630
H         -1.05045        2.36657        0.80219
H         -1.55537        4.78113       -2.08843
H         -2.21263        6.09231       -1.10294
H         -0.49935        5.71657       -1.02080
H         -3.92393        4.79928        0.11985
H         -3.52878        3.67271       -1.14787
H         -4.91541        2.56971        0.42335
H         -3.35682        1.80368        0.42297
H         -4.20635        1.89602        2.66747
H         -2.76585        2.87632        2.57662
H         -4.42457        3.98130        3.94710
H         -4.18583        4.95637        2.50744
H         -6.50021        2.98632        2.90770
H         -6.58768        4.73894        3.14845
H         -6.29859        4.09066        1.53107
H         -2.07704        5.86074        1.27731
H          0.40755        5.51533        1.12685
H         -0.31246        5.73842        2.71949
H          0.08476        4.11724        2.20313

--Link1--
%chk=JID_4193.chk
%mem=8GB
%nprocshared=4
# B3LYP/6-311++G(d,p) empiricaldispersion=gd3bj scf=xqc pop=npa geom=check

CID_142495702_JID_4193_Energie_neutraal

0 1

--Link1--
%chk=JID_4193.chk
%mem=8GB
%nprocshared=4
# B3LYP/6-311++G(d,p) empiricaldispersion=gd3bj scf=xqc pop=npa geom=check

CID_142495702_JID_4193_Energie_kation

1 2

--Link1--
%chk=JID_4193.chk
%mem=8GB
%nprocshared=4
# B3LYP/6-311++G(d,p) empiricaldispersion=gd3bj scf=xqc pop=npa geom=check

CID_142495702_JID_4193_Energie_anion

-1 2
