%chk=JID_3996.chk
%mem=8GB
%nprocshared=4
# opt freq B3LYP/6-31G(d) empiricaldispersion=gd3bj scf=xqc

CID_104372839_JID_3996_neutraal

0 1
C          0.96956       -0.02929        0.09064
C          0.26648       -0.70076        1.25704
C          0.80849       -0.44399        2.63563
C          2.13044        0.21669        2.90798
C          0.84907        0.93646        3.31192
C          0.46383        2.10069        2.54058
N          0.17932        3.04159        1.92368
S          0.41837        0.94555        5.03455
C          1.26380        2.38667        5.75410
C          2.73338        2.57100        5.37757
C          2.97791        4.04304        5.67663
C          1.71629        4.70933        5.14927
C          0.58505        3.73960        5.49375
H          0.86325        1.05641        0.10666
H          0.53986       -0.38252       -0.85297
H          2.03720       -0.26909        0.07432
H         -0.79865       -0.44295        1.24030
H          0.31846       -1.78401        1.08541
H          0.54618       -1.28526        3.27552
H          2.71304        0.63032        2.09315
H          2.75343       -0.22090        3.68229
H          1.22296        2.21566        6.83799
H          3.39599        1.92010        5.95635
H          2.92379        2.39661        4.31495
H          3.88226        4.42169        5.19203
H          3.07136        4.20362        6.75710
H          1.78535        4.82538        4.06101
H          1.55808        5.70149        5.58186
H         -0.16894        3.72724        4.70226
H          0.07582        4.07454        6.40579

--Link1--
%chk=JID_3996.chk
%mem=8GB
%nprocshared=4
# B3LYP/6-311++G(d,p) empiricaldispersion=gd3bj scf=xqc pop=npa geom=check

CID_104372839_JID_3996_Energie_neutraal

0 1

--Link1--
%chk=JID_3996.chk
%mem=8GB
%nprocshared=4
# B3LYP/6-311++G(d,p) empiricaldispersion=gd3bj scf=xqc pop=npa geom=check

CID_104372839_JID_3996_Energie_kation

1 2

--Link1--
%chk=JID_3996.chk
%mem=8GB
%nprocshared=4
# B3LYP/6-311++G(d,p) empiricaldispersion=gd3bj scf=xqc pop=npa geom=check

CID_104372839_JID_3996_Energie_anion

-1 2
