%chk=JID_7705.chk
%mem=8GB
%nprocshared=4
# opt freq B3LYP/6-31G(d) empiricaldispersion=gd3bj scf=xqc

CID_67343043_JID_7705_neutraal

0 1
C          0.93602        0.05948        0.04867
O         -0.03833        1.05396       -0.24424
C          0.42523        2.24550       -0.72996
C         -0.53534        3.25569       -0.81402
C         -0.19518        4.52994       -1.27539
C          1.11923        4.81145       -1.66791
C          2.07422        3.78640       -1.60803
C          1.73075        2.51281       -1.13951
C          1.50509        6.18707       -2.14959
N          1.56391        6.25806       -3.60331
C          0.50763        6.44002       -4.45650
C          1.04120        6.52934       -5.72933
C          2.43367        6.39699       -5.51891
N          2.75610        6.24158       -4.23188
C          0.37503        6.72545       -6.99986
O          0.97581        6.84057       -8.06199
N         -0.98844        6.77418       -6.96504
H          0.41959       -0.78953        0.50678
H          1.67581        0.42761        0.76744
H          1.41807       -0.29853       -0.86680
H         -1.55786        3.04855       -0.50709
H         -0.96542        5.29633       -1.31696
H          3.09814        3.97489       -1.93002
H          2.50548        1.75371       -1.11349
H          0.78405        6.94231       -1.81532
H          2.48412        6.47751       -1.75027
H         -0.50460        6.49082       -4.08376
H          3.22107        6.41541       -6.26298
H         -1.52459        6.60549       -6.12917
H         -1.46992        6.86740       -7.84826

--Link1--
%chk=JID_7705.chk
%mem=8GB
%nprocshared=4
# B3LYP/6-311++G(d,p) empiricaldispersion=gd3bj scf=xqc pop=npa geom=check

CID_67343043_JID_7705_Energie_neutraal

0 1

--Link1--
%chk=JID_7705.chk
%mem=8GB
%nprocshared=4
# B3LYP/6-311++G(d,p) empiricaldispersion=gd3bj scf=xqc pop=npa geom=check

CID_67343043_JID_7705_Energie_kation

1 2

--Link1--
%chk=JID_7705.chk
%mem=8GB
%nprocshared=4
# B3LYP/6-311++G(d,p) empiricaldispersion=gd3bj scf=xqc pop=npa geom=check

CID_67343043_JID_7705_Energie_anion

-1 2
