%chk=JID_8456.chk
%mem=8GB
%nprocshared=4
# opt freq B3LYP/6-31G(d) empiricaldispersion=gd3bj scf=xqc

CID_90165320_JID_8456_neutraal

0 1
C          1.26600       -0.09700        0.26800
C          0.23995        1.02202        0.28150
C         -1.03586        0.31005        0.70950
C         -0.95306       -1.09508        0.07594
C          0.51461       -1.25696       -0.36887
C         -1.89841       -1.38702       -1.07722
C         -2.35086       -0.37613       -1.93844
C         -3.19538       -0.66998       -3.00907
C         -3.59403       -1.98430       -3.24639
C         -3.15010       -3.03091       -2.42429
C         -2.29400       -2.71183       -1.34917
O         -1.78736       -3.69633       -0.53375
C         -3.58605       -4.40520       -2.71100
C         -3.09542       -5.09392       -3.83096
C         -3.49443       -6.40634       -4.09343
C         -4.39031       -7.04648       -3.23978
C         -4.89000       -6.37577       -2.12552
C         -4.49157       -5.06315       -1.86367
H          1.56146       -0.35462        1.29199
H          2.16759        0.16985       -0.29070
H          0.51430        1.82886        0.96700
H          0.12482        1.44712       -0.72210
H         -1.93773        0.87670        0.46210
H         -1.02400        0.20491        1.80277
H         -1.17133       -1.80370        0.88602
H          0.61538       -1.19778       -1.46003
H          0.92804       -2.22227       -0.05773
H         -2.04390        0.65681       -1.79676
H         -3.54096        0.12781       -3.66169
H         -4.25855       -2.19214       -4.08285
H         -2.02513       -4.56209       -0.90682
H         -2.39017       -4.60906       -4.50357
H         -3.10485       -6.92773       -4.96405
H         -4.70130       -8.06784       -3.44464
H         -5.59223       -6.87240       -1.46079
H         -4.89329       -4.54926       -0.99172

--Link1--
%chk=JID_8456.chk
%mem=8GB
%nprocshared=4
# B3LYP/6-311++G(d,p) empiricaldispersion=gd3bj scf=xqc pop=npa geom=check

CID_90165320_JID_8456_Energie_neutraal

0 1

--Link1--
%chk=JID_8456.chk
%mem=8GB
%nprocshared=4
# B3LYP/6-311++G(d,p) empiricaldispersion=gd3bj scf=xqc pop=npa geom=check

CID_90165320_JID_8456_Energie_kation

1 2

--Link1--
%chk=JID_8456.chk
%mem=8GB
%nprocshared=4
# B3LYP/6-311++G(d,p) empiricaldispersion=gd3bj scf=xqc pop=npa geom=check

CID_90165320_JID_8456_Energie_anion

-1 2
