%chk=JID_6856.chk
%mem=8GB
%nprocshared=4
# opt freq B3LYP/6-31G(d) empiricaldispersion=gd3bj scf=xqc

CID_70357425_JID_6856_neutraal

0 1
C          0.95711       -0.08260        0.03658
C          0.50898        1.39252       -0.07739
C          1.15363        1.95947       -1.36177
C         -1.02631        1.39943       -0.23429
C          0.89827        2.25629        1.13602
C          1.50168        1.71998        2.28459
C          1.83689        2.52939        3.37387
C          1.57838        3.89593        3.34102
C          0.97988        4.46677        2.21534
C          0.63902        3.64250        1.13042
C          0.67670        5.94237        2.18266
C         -0.50414        6.30867        3.04192
O         -0.41604        6.95348        4.08089
C         -1.86518        5.82413        2.53311
O         -2.13198        5.67034        1.35701
O         -2.73991        5.58015        3.51378
H          0.67720       -0.65089       -0.85863
H          0.48800       -0.58333        0.89147
H          2.04472       -0.16521        0.14653
H          0.92755        1.32806       -2.22913
H          0.79277        2.96564       -1.60048
H          2.24432        2.01428       -1.26419
H         -1.51712        1.01551        0.66799
H         -1.41785        2.40639       -0.41702
H         -1.34052        0.77277       -1.07709
H          1.72547        0.65988        2.36536
H          2.30165        2.08732        4.25196
H          1.84484        4.50940        4.19988
H          0.15472        4.09452        0.26534
H          1.55257        6.49982        2.53743
H          0.49678        6.29343        1.15991
H         -3.55891        5.28937        3.06516

--Link1--
%chk=JID_6856.chk
%mem=8GB
%nprocshared=4
# B3LYP/6-311++G(d,p) empiricaldispersion=gd3bj scf=xqc pop=npa geom=check

CID_70357425_JID_6856_Energie_neutraal

0 1

--Link1--
%chk=JID_6856.chk
%mem=8GB
%nprocshared=4
# B3LYP/6-311++G(d,p) empiricaldispersion=gd3bj scf=xqc pop=npa geom=check

CID_70357425_JID_6856_Energie_kation

1 2

--Link1--
%chk=JID_6856.chk
%mem=8GB
%nprocshared=4
# B3LYP/6-311++G(d,p) empiricaldispersion=gd3bj scf=xqc pop=npa geom=check

CID_70357425_JID_6856_Energie_anion

-1 2
