%chk=JID_4513.chk
%mem=8GB
%nprocshared=4
# opt freq B3LYP/6-31G(d) empiricaldispersion=gd3bj scf=xqc

CID_79777085_JID_4513_neutraal

0 1
C          1.08072       -0.05666        0.01653
C          0.50369       -1.14320       -0.89606
C          0.83694       -2.57071       -0.40367
C          0.15805       -2.98639        0.87393
C         -1.04515       -3.89593        0.85142
C          0.27955       -4.42256        1.32099
N         -0.92076       -0.94867       -1.23453
C         -1.89385       -0.58805       -0.21090
C         -3.03304        0.19781       -0.82280
C         -3.61050       -0.58856       -1.96273
O         -4.76567       -0.43309       -2.35069
N         -2.74442       -1.42482       -2.61218
C         -1.39315       -1.51873       -2.40983
O         -0.68199       -2.06203       -3.25001
H          0.68415       -0.10429        1.03435
H          0.85872        0.93916       -0.38231
H          2.16959       -0.15459        0.08567
H          1.04536       -1.03254       -1.84639
H          0.59712       -3.29070       -1.19633
H          1.92123       -2.64141       -0.24860
H          0.22987       -2.24113        1.65668
H         -1.81788       -3.73995        1.59566
H         -1.41751       -4.24399       -0.10596
H          0.79878       -5.12729        0.68053
H          0.40222       -4.61731        2.38061
H         -1.42921        0.01810        0.56910
H         -2.27028       -1.50996        0.24309
H         -2.68558        1.16053       -1.21347
H         -3.81214        0.37674       -0.07524
H         -3.08969       -1.85648       -3.45637

--Link1--
%chk=JID_4513.chk
%mem=8GB
%nprocshared=4
# B3LYP/6-311++G(d,p) empiricaldispersion=gd3bj scf=xqc pop=npa geom=check

CID_79777085_JID_4513_Energie_neutraal

0 1

--Link1--
%chk=JID_4513.chk
%mem=8GB
%nprocshared=4
# B3LYP/6-311++G(d,p) empiricaldispersion=gd3bj scf=xqc pop=npa geom=check

CID_79777085_JID_4513_Energie_kation

1 2

--Link1--
%chk=JID_4513.chk
%mem=8GB
%nprocshared=4
# B3LYP/6-311++G(d,p) empiricaldispersion=gd3bj scf=xqc pop=npa geom=check

CID_79777085_JID_4513_Energie_anion

-1 2
