%chk=JID_9132.chk
%mem=8GB
%nprocshared=4
# opt freq B3LYP/6-31G(d) empiricaldispersion=gd3bj scf=xqc

CID_15438775_JID_9132_neutraal

0 1
C          2.49200        0.00400       -0.01400
C          0.99280        0.04020        0.00448
C          0.25716       -1.13666        0.17230
C         -1.14117       -1.10747        0.15804
C         -1.83897        0.09472       -0.03651
C         -1.08966        1.26740       -0.22019
C          0.30864        1.24105       -0.20496
C         -3.30967        0.12440       -0.05159
C         -4.01225        0.67328       -1.13424
C         -5.40802        0.69503       -1.12744
N         -6.11790        0.20672       -0.07916
C         -5.43308       -0.32190        0.95572
C         -4.05299       -0.38799        1.01352
C         -6.20623        1.25536       -2.23860
C         -7.43737        1.89006       -1.98797
C         -8.20453        2.43378       -3.02269
C         -7.75849        2.34881       -4.33770
C         -6.55039        1.71700       -4.61729
C         -5.78456        1.17515       -3.57910
H          2.87115       -0.77765        0.65270
H          2.84911       -0.19219       -1.02963
H          2.91090        0.95536        0.33049
H          0.76651       -2.08730        0.31417
H         -1.68510       -2.04137        0.28567
H         -1.59296        2.22109       -0.36762
H          0.85799        2.16802       -0.35402
H         -3.46366        1.08671       -1.97514
H         -6.04538       -0.70225        1.76827
H         -3.56900       -0.81689        1.88492
H         -7.80643        1.96425       -0.96580
H         -9.15029        2.91887       -2.79647
H         -8.35513        2.76758       -5.14356
H         -6.20417        1.63761       -5.64456
H         -4.85764        0.66812       -3.83743

--Link1--
%chk=JID_9132.chk
%mem=8GB
%nprocshared=4
# B3LYP/6-311++G(d,p) empiricaldispersion=gd3bj scf=xqc pop=npa geom=check

CID_15438775_JID_9132_Energie_neutraal

0 1

--Link1--
%chk=JID_9132.chk
%mem=8GB
%nprocshared=4
# B3LYP/6-311++G(d,p) empiricaldispersion=gd3bj scf=xqc pop=npa geom=check

CID_15438775_JID_9132_Energie_kation

1 2

--Link1--
%chk=JID_9132.chk
%mem=8GB
%nprocshared=4
# B3LYP/6-311++G(d,p) empiricaldispersion=gd3bj scf=xqc pop=npa geom=check

CID_15438775_JID_9132_Energie_anion

-1 2
