%chk=JID_8103.chk
%mem=8GB
%nprocshared=4
# opt freq B3LYP/6-31G(d) empiricaldispersion=gd3bj scf=xqc

CID_75045580_JID_8103_neutraal

0 1
C          0.70300        1.24700       -0.25500
C         -0.76636        0.95525       -0.10169
C         -0.09052        1.84626        0.87632
C         -0.17605        1.19260        2.21844
N         -1.19416        0.13474        2.06885
C         -1.26393       -0.24184        0.64299
C         -2.50709        0.51048        2.63069
C         -3.23222        1.76180        2.09225
O         -3.79593        1.48766        0.80866
C         -4.33463        2.54238        0.12703
C         -4.55659        3.82117        0.63644
C         -5.11064        4.81415       -0.17968
C         -5.44433        4.53767       -1.51125
C         -5.24551        3.24815       -2.01401
C         -4.69206        2.25978       -1.19433
C         -6.02316        5.63310       -2.33433
O         -6.53028        6.62290       -1.82188
N         -5.93260        5.52012       -3.69381
H          1.00677        1.90280       -1.06249
H          1.41368        0.45994       -0.03063
H         -1.47403        1.37541       -0.80033
H         -0.31719        2.90198        0.87304
H          0.78560        0.73298        2.47407
H         -0.41472        1.90881        3.01225
H         -0.59544       -1.09278        0.46703
H         -2.26403       -0.55100        0.32220
H         -3.17544       -0.35461        2.53096
H         -2.36399        0.64885        3.71023
H         -4.04804        2.00043        2.78601
H         -2.54655        2.61488        2.05305
H         -4.31908        4.08027        1.66285
H         -5.28074        5.80935        0.22804
H         -5.53487        2.98396       -3.02611
H         -4.53948        1.25705       -1.58757
H         -5.32401        4.85700       -4.14998
H         -6.23628        6.32374       -4.22902

--Link1--
%chk=JID_8103.chk
%mem=8GB
%nprocshared=4
# B3LYP/6-311++G(d,p) empiricaldispersion=gd3bj scf=xqc pop=npa geom=check

CID_75045580_JID_8103_Energie_neutraal

0 1

--Link1--
%chk=JID_8103.chk
%mem=8GB
%nprocshared=4
# B3LYP/6-311++G(d,p) empiricaldispersion=gd3bj scf=xqc pop=npa geom=check

CID_75045580_JID_8103_Energie_kation

1 2

--Link1--
%chk=JID_8103.chk
%mem=8GB
%nprocshared=4
# B3LYP/6-311++G(d,p) empiricaldispersion=gd3bj scf=xqc pop=npa geom=check

CID_75045580_JID_8103_Energie_anion

-1 2
