%chk=JID_7205.chk
%mem=8GB
%nprocshared=4
# opt freq B3LYP/6-31G(d) empiricaldispersion=gd3bj scf=xqc

CID_143069351_JID_7205_neutraal

0 1
C          2.26000        1.82000        0.03500
C          1.25233        0.71243        0.12859
C         -0.09947        0.96542       -0.13582
C         -1.06371       -0.04322        0.00079
C         -0.65099       -1.31824        0.42233
C          0.69425       -1.58443        0.72733
C          1.63942       -0.56290        0.55839
C          1.14069       -2.94345        1.18460
O         -1.59521       -2.28861        0.66852
C         -2.01185       -3.13128       -0.35521
C         -1.41277       -3.25792       -1.55277
C         -3.23402       -3.96431       -0.02235
C         -3.78249       -3.80318        1.39713
C         -4.43386       -2.46290        1.59788
O         -5.08378       -1.83223        0.78093
O         -4.28641       -2.00359        2.85595
C         -2.51120        0.27345       -0.24470
H          1.98648        2.53114       -0.75157
H          2.32012        2.35239        0.98920
H          3.25136        1.42706       -0.21403
H         -0.40586        1.96460       -0.44034
H          2.68687       -0.75757        0.78137
H          0.42025       -3.38294        1.88175
H          1.26001       -3.60778        0.32307
H          2.09922       -2.88683        1.71149
H         -1.79748       -3.94576       -2.29909
H         -0.53217       -2.68791       -1.82760
H         -4.02484       -3.73429       -0.74785
H         -2.97253       -5.02191       -0.15793
H         -4.54491       -4.56568        1.59169
H         -2.98081       -3.94046        2.13212
H         -4.73617       -1.13339        2.84613
H         -3.05680        0.28869        0.70364
H         -2.62979        1.25407       -0.71812
H         -2.96519       -0.46026       -0.91693

--Link1--
%chk=JID_7205.chk
%mem=8GB
%nprocshared=4
# B3LYP/6-311++G(d,p) empiricaldispersion=gd3bj scf=xqc pop=npa geom=check

CID_143069351_JID_7205_Energie_neutraal

0 1

--Link1--
%chk=JID_7205.chk
%mem=8GB
%nprocshared=4
# B3LYP/6-311++G(d,p) empiricaldispersion=gd3bj scf=xqc pop=npa geom=check

CID_143069351_JID_7205_Energie_kation

1 2

--Link1--
%chk=JID_7205.chk
%mem=8GB
%nprocshared=4
# B3LYP/6-311++G(d,p) empiricaldispersion=gd3bj scf=xqc pop=npa geom=check

CID_143069351_JID_7205_Energie_anion

-1 2
