%chk=JID_7431.chk
%mem=8GB
%nprocshared=4
# opt freq B3LYP/6-31G(d) empiricaldispersion=gd3bj scf=xqc

CID_79848075_JID_7431_neutraal

0 1
C          0.92785       -0.01136       -0.06830
C          0.27129        1.34265       -0.40833
C         -0.36114        1.95885        0.85688
C          0.67417        2.46383        1.85542
C          1.63473        3.45928        1.21305
C          2.34409        2.95484       -0.06494
C          1.26454        2.36343       -1.03813
O          1.89017        1.78336       -2.18728
N          3.50377        2.02472        0.07415
C          4.06055        1.86641        1.43962
C          5.34594        0.99367        1.45428
C          5.18205       -0.32419        0.70174
C          5.53815        0.03624       -0.73734
C          5.87461        1.52271       -0.66250
C          4.62884        2.43037       -0.82862
O          6.35733        1.68311        0.68882
C         -0.85853        1.04946       -1.42217
H          0.19197       -0.70310        0.35878
H          1.73331        0.08413        0.66205
H          1.34261       -0.49449       -0.95957
H         -1.00589        2.80109        0.57121
H         -1.01379        1.22926        1.35274
H          1.21337        1.62104        2.29492
H          0.15523        2.95653        2.68655
H          2.35418        3.81865        1.95605
H          1.05205        4.34982        0.93649
H          2.72720        3.86503       -0.54863
H          0.68198        3.21453       -1.41612
H          2.56747        1.18733       -1.81552
H          4.31983        2.84843        1.85353
H          3.32834        1.38601        2.09204
H          5.69928        0.84841        2.47959
H          4.18346       -0.75901        0.80406
H          5.90300       -1.06128        1.07445
H          6.42325       -0.53475       -1.04139
H          4.73874       -0.18938       -1.44966
H          6.65932        1.81186       -1.36795
H          4.31361        2.40157       -1.87599
H          4.92600        3.46150       -0.59409
H         -0.47028        0.57779       -2.33167
H         -1.60852        0.37466       -0.99366
H         -1.37425        1.96983       -1.71859

--Link1--
%chk=JID_7431.chk
%mem=8GB
%nprocshared=4
# B3LYP/6-311++G(d,p) empiricaldispersion=gd3bj scf=xqc pop=npa geom=check

CID_79848075_JID_7431_Energie_neutraal

0 1

--Link1--
%chk=JID_7431.chk
%mem=8GB
%nprocshared=4
# B3LYP/6-311++G(d,p) empiricaldispersion=gd3bj scf=xqc pop=npa geom=check

CID_79848075_JID_7431_Energie_kation

1 2

--Link1--
%chk=JID_7431.chk
%mem=8GB
%nprocshared=4
# B3LYP/6-311++G(d,p) empiricaldispersion=gd3bj scf=xqc pop=npa geom=check

CID_79848075_JID_7431_Energie_anion

-1 2
