%chk=JID_10657.chk
%mem=8GB
%nprocshared=4
# opt freq B3LYP/6-31G(d) empiricaldispersion=gd3bj scf=xqc

CID_11832856_JID_10657_neutraal

0 1
C          1.07139       -0.00238       -0.06999
C          0.70133       -0.29400        1.34907
C         -0.17261        0.43725        2.05807
C         -0.56785        0.13947        3.48266
C         -0.19622        1.25988        4.48682
C         -0.85641        2.59848        4.19719
C         -0.06119        3.74840        4.06265
C         -0.64162        4.99155        3.80580
C         -2.02452        5.10392        3.68612
C         -2.82824        3.97464        3.82514
C         -2.24980        2.72973        4.08119
N         -0.54497        0.84535        5.85203
C          0.26644        0.27734        6.80374
S         -0.44181       -0.39142        8.16569
C          1.72768        0.31520        6.60811
C          2.42991       -0.85571        6.30939
C          3.81213       -0.79847        6.12883
C          4.48406        0.42042        6.24800
C          3.77931        1.58717        6.55005
C          2.39803        1.53770        6.73284
H          0.55033        0.87681       -0.46189
H          0.82088       -0.85869       -0.70349
H          2.14817        0.17778       -0.14390
H          1.18220       -1.15801        1.80273
H         -0.65546        1.29483        1.59127
H         -1.64801       -0.05262        3.50491
H         -0.09626       -0.79665        3.81098
H          0.88941        1.38829        4.42562
H          1.02094        3.68264        4.15612
H         -0.01373        5.87262        3.70165
H         -2.47631        6.07242        3.48857
H         -3.90806        4.06375        3.73746
H         -2.89950        1.86499        4.19196
H         -1.53289        0.81803        6.07687
H          1.90990       -1.80577        6.22062
H          4.36821       -1.70446        5.90088
H          5.56231        0.45966        6.11132
H          4.30778        2.53197        6.64911
H          1.84710        2.44306        6.97565

--Link1--
%chk=JID_10657.chk
%mem=8GB
%nprocshared=4
# B3LYP/6-311++G(d,p) empiricaldispersion=gd3bj scf=xqc pop=npa geom=check

CID_11832856_JID_10657_Energie_neutraal

0 1

--Link1--
%chk=JID_10657.chk
%mem=8GB
%nprocshared=4
# B3LYP/6-311++G(d,p) empiricaldispersion=gd3bj scf=xqc pop=npa geom=check

CID_11832856_JID_10657_Energie_kation

1 2

--Link1--
%chk=JID_10657.chk
%mem=8GB
%nprocshared=4
# B3LYP/6-311++G(d,p) empiricaldispersion=gd3bj scf=xqc pop=npa geom=check

CID_11832856_JID_10657_Energie_anion

-1 2
