%chk=JID_10837.chk
%mem=8GB
%nprocshared=4
# opt freq B3LYP/6-31G(d) empiricaldispersion=gd3bj scf=xqc

CID_128502351_JID_10837_neutraal

0 1
C         -1.50200        0.71300        0.14900
C         -0.85235       -0.66595        0.03315
N          0.36575       -0.78310        0.86870
C          1.57006       -0.08600        0.35742
C          1.44490        1.42385        0.33794
S          0.63640        2.02251       -1.12469
O          1.13760        1.25263       -2.24890
O          0.77799        3.46717       -1.12078
C         -1.10314        1.66658       -0.96238
S          0.17297       -0.96351        2.54258
O          0.56569        0.29640        3.13771
O         -1.13970       -1.51799        2.78977
C          1.40619       -2.18967        2.98593
C          1.00447       -3.64134        2.74616
C          0.97616       -4.11493        1.28231
C          0.51248       -5.58225        1.22580
C          0.59152       -6.13395       -0.19123
O          1.91315       -5.99634       -0.70860
C          2.31450       -4.63159       -0.79422
C          2.34045       -3.98830        0.58820
H         -1.31403        1.16911        1.12660
H         -2.58944        0.58060        0.08134
H         -1.56650       -1.43766        0.34336
H         -0.60653       -0.90999       -1.00707
H          1.81920       -0.50132       -0.62517
H          2.41933       -0.35008        0.99657
H          2.45093        1.85856        0.30049
H          0.93886        1.85029        1.20591
H         -1.43425        1.27835       -1.93228
H         -1.60870        2.62593       -0.80750
H          2.35965       -1.92784        2.52441
H          1.54412       -2.05404        4.06636
H          1.71470       -4.27246        3.29760
H          0.02408       -3.82692        3.20179
H          0.24529       -3.51583        0.72674
H          1.15964       -6.18758        1.87407
H         -0.51128       -5.67550        1.60516
H          0.34353       -7.20025       -0.18935
H         -0.11814       -5.62962       -0.85720
H          1.64182       -4.09295       -1.47192
H          3.31657       -4.60608       -1.23419
H          2.63754       -2.94020        0.49075
H          3.10077       -4.49209        1.19865

--Link1--
%chk=JID_10837.chk
%mem=8GB
%nprocshared=4
# B3LYP/6-311++G(d,p) empiricaldispersion=gd3bj scf=xqc pop=npa geom=check

CID_128502351_JID_10837_Energie_neutraal

0 1

--Link1--
%chk=JID_10837.chk
%mem=8GB
%nprocshared=4
# B3LYP/6-311++G(d,p) empiricaldispersion=gd3bj scf=xqc pop=npa geom=check

CID_128502351_JID_10837_Energie_kation

1 2

--Link1--
%chk=JID_10837.chk
%mem=8GB
%nprocshared=4
# B3LYP/6-311++G(d,p) empiricaldispersion=gd3bj scf=xqc pop=npa geom=check

CID_128502351_JID_10837_Energie_anion

-1 2
