%chk=JID_7750.chk
%mem=8GB
%nprocshared=4
# opt freq B3LYP/6-31G(d) empiricaldispersion=gd3bj scf=xqc

CID_113575051_JID_7750_neutraal

0 1
C          0.98964       -0.09764       -0.01893
C          0.62553       -0.83663       -1.31261
C          1.05903       -2.30367       -1.17518
C         -0.88626       -0.73734       -1.64814
C         -1.38720        0.67400       -1.89861
N         -0.62749        1.74379       -2.02015
C         -1.40724        2.87027       -2.24697
C         -2.76727        2.62472       -2.35447
S         -3.08005        0.96722       -2.05371
C         -3.87520        3.58106       -2.66978
N         -3.81312        3.96793       -4.08023
C         -4.83883        4.94749       -4.40291
C         -0.72833        4.19900       -2.38229
O         -0.84255        4.75782       -3.69854
C          0.06135        4.14144       -4.61045
O         -1.26380       -1.58249       -2.75611
C         -0.68486       -1.25324       -4.01353
H          0.41142       -0.48003        0.82931
H          0.80897        0.97771       -0.09208
H          2.05223       -0.22801        0.21433
H          1.21419       -0.39372       -2.12555
H          0.50100       -2.80593       -0.37730
H          0.89893       -2.86212       -2.10219
H          2.12559       -2.37218       -0.93496
H         -1.44006       -1.13019       -0.78461
H         -4.84929        3.12680       -2.45112
H         -3.77577        4.46305       -2.02476
H         -2.89088        4.37925       -4.25926
H         -4.72359        5.86155       -3.81145
H         -4.76186        5.21988       -5.46016
H         -5.84139        4.53893       -4.24070
H         -1.20528        4.90653       -1.69437
H          0.32599        4.13765       -2.08683
H          1.09454        4.27034       -4.27313
H         -0.16768        3.07874       -4.73173
H         -0.04889        4.63121       -5.58157
H         -0.95029       -0.24130       -4.33023
H          0.40110       -1.37078       -3.99525
H         -1.08363       -1.95142       -4.75522

--Link1--
%chk=JID_7750.chk
%mem=8GB
%nprocshared=4
# B3LYP/6-311++G(d,p) empiricaldispersion=gd3bj scf=xqc pop=npa geom=check

CID_113575051_JID_7750_Energie_neutraal

0 1

--Link1--
%chk=JID_7750.chk
%mem=8GB
%nprocshared=4
# B3LYP/6-311++G(d,p) empiricaldispersion=gd3bj scf=xqc pop=npa geom=check

CID_113575051_JID_7750_Energie_kation

1 2

--Link1--
%chk=JID_7750.chk
%mem=8GB
%nprocshared=4
# B3LYP/6-311++G(d,p) empiricaldispersion=gd3bj scf=xqc pop=npa geom=check

CID_113575051_JID_7750_Energie_anion

-1 2
