%chk=JID_7486.chk
%mem=8GB
%nprocshared=4
# opt freq B3LYP/6-31G(d) empiricaldispersion=gd3bj scf=xqc

CID_153738322_JID_7486_neutraal

0 1
C          1.01757       -0.07969       -0.05781
C          1.47817       -1.51254        0.13411
O          1.84668       -1.69899        1.50685
C          3.15444       -2.10803        1.60641
C          3.46414       -3.47973        1.64283
C          4.81766       -3.87929        1.80714
C          5.83362       -2.88334        1.79966
C          5.47461       -1.52610        1.81346
C          4.14311       -1.13651        1.71139
N          7.19860       -3.19941        1.99704
C          5.14786       -5.30913        1.96655
C          5.77136       -5.80007        3.11347
C          6.05011       -7.16113        3.20465
C          5.69701       -7.99869        2.15473
C          5.07317       -7.43851        1.05323
N          4.78763       -6.12277        0.93564
N          2.40770       -4.42265        1.74450
H          0.19999        0.15903        0.63038
H          0.67509        0.08457       -1.08337
H          1.83091        0.62080        0.15736
H          0.64911       -2.19593       -0.07972
H          2.28885       -1.74371       -0.56970
H          6.23904       -0.75900        1.90731
H          3.87766       -0.08419        1.72408
H          7.44131       -4.11368        1.62008
H          7.82730       -2.48079        1.65084
H          6.03152       -5.12869        3.92666
H          6.53414       -7.56095        4.09094
H          5.89853       -9.06310        2.19559
H          4.77526       -8.05289        0.20838
H          2.68866       -5.32467        1.35574
H          1.54033       -4.06693        1.35716

--Link1--
%chk=JID_7486.chk
%mem=8GB
%nprocshared=4
# B3LYP/6-311++G(d,p) empiricaldispersion=gd3bj scf=xqc pop=npa geom=check

CID_153738322_JID_7486_Energie_neutraal

0 1

--Link1--
%chk=JID_7486.chk
%mem=8GB
%nprocshared=4
# B3LYP/6-311++G(d,p) empiricaldispersion=gd3bj scf=xqc pop=npa geom=check

CID_153738322_JID_7486_Energie_kation

1 2

--Link1--
%chk=JID_7486.chk
%mem=8GB
%nprocshared=4
# B3LYP/6-311++G(d,p) empiricaldispersion=gd3bj scf=xqc pop=npa geom=check

CID_153738322_JID_7486_Energie_anion

-1 2
