%chk=JID_7755.chk
%mem=8GB
%nprocshared=4
# opt freq B3LYP/6-31G(d) empiricaldispersion=gd3bj scf=xqc

CID_60696240_JID_7755_neutraal

0 1
C          1.08324        0.02952       -0.04690
C          0.26176        0.99362        0.79084
N          0.81250        2.33413        0.75192
C          0.45920        3.42948        0.01896
O          1.17114        4.43345        0.12367
C         -0.78093        3.42867       -0.90580
C         -0.66447        2.38601       -2.01656
N         -2.01401        3.43349       -0.09103
C         -3.25731        3.21445       -0.85439
C         -3.67439        1.73137       -0.77328
O         -3.24844        1.02795        0.15115
N         -4.54893        1.22497       -1.72532
C         -4.85183       -0.20426       -1.69725
C         -4.04616       -0.92004       -2.78029
C         -4.29053       -0.28619       -4.15366
C         -4.09061        1.23378       -4.12302
C         -4.89247        1.87278       -2.98816
H          1.13582        0.34218       -1.09323
H          0.64849       -0.97395       -0.00881
H          2.11049       -0.02964        0.32864
H         -0.77198        0.98965        0.45717
H          0.27533        0.67528        1.83830
H          1.63944        2.50780        1.31092
H         -0.74844        4.40674       -1.40661
H         -0.98030        1.38945       -1.70040
H         -1.28282        2.66515       -2.87547
H          0.36822        2.31116       -2.37430
H         -1.96262        2.70698        0.62953
H         -4.05935        3.79093       -0.38107
H         -3.14347        3.57348       -1.87733
H         -5.92717       -0.32323       -1.87556
H         -4.63524       -0.64096       -0.71727
H         -4.31369       -1.98195       -2.80614
H         -2.97684       -0.85853       -2.54186
H         -3.61847       -0.73499       -4.89357
H         -5.31571       -0.50790       -4.47471
H         -3.02434        1.44766       -3.98610
H         -4.38835        1.66703       -5.08384
H         -4.72358        2.94961       -2.95648
H         -5.96629        1.72550       -3.15497

--Link1--
%chk=JID_7755.chk
%mem=8GB
%nprocshared=4
# B3LYP/6-311++G(d,p) empiricaldispersion=gd3bj scf=xqc pop=npa geom=check

CID_60696240_JID_7755_Energie_neutraal

0 1

--Link1--
%chk=JID_7755.chk
%mem=8GB
%nprocshared=4
# B3LYP/6-311++G(d,p) empiricaldispersion=gd3bj scf=xqc pop=npa geom=check

CID_60696240_JID_7755_Energie_kation

1 2

--Link1--
%chk=JID_7755.chk
%mem=8GB
%nprocshared=4
# B3LYP/6-311++G(d,p) empiricaldispersion=gd3bj scf=xqc pop=npa geom=check

CID_60696240_JID_7755_Energie_anion

-1 2
