%chk=JID_6966.chk
%mem=8GB
%nprocshared=4
# opt freq B3LYP/6-31G(d) empiricaldispersion=gd3bj scf=xqc

CID_145373293_JID_6966_neutraal

0 1
C          0.91804       -0.03699       -0.04375
C          0.87076       -0.52558        1.39564
C          1.18449        0.56792        2.41898
C          0.23820        1.77233        2.40512
C         -1.24141        1.45149        2.64867
C         -1.56167        0.75426        3.97574
C         -1.11668        1.54060        5.17774
C         -1.95245        2.21162        5.98598
C         -1.58328        3.01904        7.19965
C         -0.10139        3.08257        7.60015
C          0.01701        4.29335        8.52629
C         -1.32577        5.01681        8.45655
C         -2.00974        4.50585        7.17651
C         -1.54487        5.33173        5.95396
C         -2.39956        5.19248        4.69605
O         -3.73926        5.59846        4.93900
H          0.11881        0.68060       -0.25082
H          0.79085       -0.88014       -0.73040
H          1.87834        0.43867       -0.26645
H         -0.10866       -0.97169        1.59950
H          1.60723       -1.32959        1.51446
H          1.19427        0.11979        3.41935
H          2.20477        0.93207        2.24341
H          0.58330        2.49283        3.15676
H          0.32591        2.29237        1.44367
H         -1.80521        2.39188        2.59745
H         -1.62143        0.83217        1.82762
H         -2.64375        0.57731        4.02037
H         -1.09461       -0.23650        4.00965
H         -0.04749        1.53471        5.37320
H         -3.02001        2.17438        5.76971
H         -2.11584        2.54374        8.03817
H          0.22225        2.16290        8.09945
H          0.55369        3.23319        6.73443
H          0.82956        4.94662        8.18915
H          0.24374        3.99259        9.55449
H         -1.20883        6.10462        8.48615
H         -1.93034        4.73461        9.32812
H         -3.09520        4.59860        7.29361
H         -1.57172        6.39238        6.23700
H         -0.50374        5.10180        5.70152
H         -1.99846        5.84797        3.91590
H         -2.40416        4.18039        4.28946
H         -4.17517        4.88425        5.43285

--Link1--
%chk=JID_6966.chk
%mem=8GB
%nprocshared=4
# B3LYP/6-311++G(d,p) empiricaldispersion=gd3bj scf=xqc pop=npa geom=check

CID_145373293_JID_6966_Energie_neutraal

0 1

--Link1--
%chk=JID_6966.chk
%mem=8GB
%nprocshared=4
# B3LYP/6-311++G(d,p) empiricaldispersion=gd3bj scf=xqc pop=npa geom=check

CID_145373293_JID_6966_Energie_kation

1 2

--Link1--
%chk=JID_6966.chk
%mem=8GB
%nprocshared=4
# B3LYP/6-311++G(d,p) empiricaldispersion=gd3bj scf=xqc pop=npa geom=check

CID_145373293_JID_6966_Energie_anion

-1 2
