%chk=JID_7922.chk
%mem=8GB
%nprocshared=4
# opt freq B3LYP/6-31G(d) empiricaldispersion=gd3bj scf=xqc

CID_79600889_JID_7922_neutraal

0 1
C         -1.21400       -1.59900        0.02800
C         -2.42489       -0.74837       -0.36454
C         -2.32491        0.57899        0.38472
O         -1.16113        1.33144        0.01474
C          0.00317        0.61225       -0.00505
C          1.18167        1.35687       -0.05299
C          2.41781        0.71184       -0.07811
C          2.47502       -0.68035       -0.06053
C          1.29647       -1.42720       -0.02721
C          0.05024       -0.78542       -0.01399
C         -3.73705       -1.41487       -0.11835
N         -3.87653       -2.60760        0.47489
N         -5.20876       -2.77274        0.45265
C         -5.83197       -1.70034       -0.11575
N         -4.92109       -0.83249       -0.50186
C         -7.30079       -1.62145       -0.25338
O         -7.70557       -2.69586       -1.09219
H         -1.32275       -1.99227        1.04737
H         -1.13142       -2.45679       -0.65146
H         -2.35294       -0.53863       -1.44160
H         -3.18835        1.21459        0.15542
H         -2.32352        0.43546        1.47377
H          1.13490        2.44237       -0.06350
H          3.33386        1.29540       -0.10849
H          3.43762       -1.18493       -0.07466
H          1.35364       -2.51339       -0.01520
H         -5.62078       -3.62510        0.81683
H         -7.79385       -1.73005        0.71703
H         -7.61663       -0.67575       -0.70350
H         -7.36120       -2.48802       -1.98072

--Link1--
%chk=JID_7922.chk
%mem=8GB
%nprocshared=4
# B3LYP/6-311++G(d,p) empiricaldispersion=gd3bj scf=xqc pop=npa geom=check

CID_79600889_JID_7922_Energie_neutraal

0 1

--Link1--
%chk=JID_7922.chk
%mem=8GB
%nprocshared=4
# B3LYP/6-311++G(d,p) empiricaldispersion=gd3bj scf=xqc pop=npa geom=check

CID_79600889_JID_7922_Energie_kation

1 2

--Link1--
%chk=JID_7922.chk
%mem=8GB
%nprocshared=4
# B3LYP/6-311++G(d,p) empiricaldispersion=gd3bj scf=xqc pop=npa geom=check

CID_79600889_JID_7922_Energie_anion

-1 2
