%chk=JID_1241.chk
%mem=8GB
%nprocshared=4
# opt freq B3LYP/6-31G(d) empiricaldispersion=gd3bj scf=xqc

CID_139248911_JID_1241_neutraal

0 1
C          0.96271        0.05553        0.07433
C          0.64937       -1.40565       -0.17711
C          0.70488       -2.29703        1.06577
C          0.07924       -1.77938        2.35994
C         -1.40472       -1.50363        2.45406
C         -2.39329       -1.56476        1.32336
C         -2.45833       -2.63655        2.39690
C         -2.06017       -4.02993        1.95763
C         -3.69088       -2.65868        3.28751
O         -3.71523       -1.57674        4.20926
O         -1.65483       -0.42686        3.38447
H          0.19059        0.53069        0.68691
H          1.01042        0.59847       -0.87523
H          1.92762        0.17159        0.57778
H         -0.32373       -1.48187       -0.66712
H          1.37239       -1.79720       -0.90403
H          0.31152       -3.28258        0.80746
H          1.76832       -2.46874        1.28584
H          0.32193       -2.49328        3.15854
H          0.61307       -0.86166        2.64152
H         -3.17276       -0.80823        1.29713
H         -2.09055       -1.86301        0.33109
H         -1.31993       -4.45032        2.64470
H         -2.92781       -4.69908        1.94345
H         -1.65358       -4.04723        0.94281
H         -4.59590       -2.60604        2.67331
H         -3.73800       -3.58544        3.87016
H         -2.99989       -1.76367        4.84783
H         -2.61466       -0.31228        3.54131

--Link1--
%chk=JID_1241.chk
%mem=8GB
%nprocshared=4
# B3LYP/6-311++G(d,p) empiricaldispersion=gd3bj scf=xqc pop=npa geom=check

CID_139248911_JID_1241_Energie_neutraal

0 1

--Link1--
%chk=JID_1241.chk
%mem=8GB
%nprocshared=4
# B3LYP/6-311++G(d,p) empiricaldispersion=gd3bj scf=xqc pop=npa geom=check

CID_139248911_JID_1241_Energie_kation

1 2

--Link1--
%chk=JID_1241.chk
%mem=8GB
%nprocshared=4
# B3LYP/6-311++G(d,p) empiricaldispersion=gd3bj scf=xqc pop=npa geom=check

CID_139248911_JID_1241_Energie_anion

-1 2
