%chk=JID_6895.chk
%mem=8GB
%nprocshared=4
# opt freq B3LYP/6-31G(d) empiricaldispersion=gd3bj scf=xqc

CID_115757434_JID_6895_neutraal

0 1
C          2.49200        0.00400       -0.01400
C          0.99491       -0.08798       -0.04413
C          0.34414       -1.32373       -0.13409
C         -1.04816       -1.39944       -0.18317
C         -1.81021       -0.23547       -0.08675
C         -1.18642        1.01191        0.05192
C          0.21694        1.07457        0.06657
C         -2.01249        2.27408        0.14584
N         -2.61008        2.59303       -1.14837
C         -3.34304        3.86469       -1.14177
C         -2.47285        5.14422       -1.13444
C         -1.56095        5.25788       -2.35523
S         -3.50054        6.66329       -0.93126
C         -4.47021        6.65259       -2.46131
O          1.07912       -2.47449       -0.25731
C          1.15890       -3.14335        1.00146
H          2.86392       -0.25129        0.98302
H          2.94035       -0.67139       -0.74991
H          2.83154        1.01570       -0.26050
H         -1.53915       -2.36004       -0.30603
H         -2.89544       -0.29817       -0.13391
H          0.71005        2.04042        0.15757
H         -2.79317        2.12596        0.90218
H         -1.37483        3.09048        0.50228
H         -1.88583        2.59234       -1.86444
H         -3.96489        3.85815       -2.04404
H         -4.03983        3.87172       -0.29376
H         -1.83482        5.13359       -0.24431
H         -2.11630        5.15821       -3.29321
H         -1.02471        6.21318       -2.36864
H         -0.80068        4.46946       -2.34348
H         -3.82330        6.71918       -3.33859
H         -5.09931        5.76232       -2.52353
H         -5.12676        7.52741       -2.46223
H          1.64681       -2.51275        1.75295
H          0.17019       -3.45845        1.35185
H          1.77020       -4.04042        0.86469

--Link1--
%chk=JID_6895.chk
%mem=8GB
%nprocshared=4
# B3LYP/6-311++G(d,p) empiricaldispersion=gd3bj scf=xqc pop=npa geom=check

CID_115757434_JID_6895_Energie_neutraal

0 1

--Link1--
%chk=JID_6895.chk
%mem=8GB
%nprocshared=4
# B3LYP/6-311++G(d,p) empiricaldispersion=gd3bj scf=xqc pop=npa geom=check

CID_115757434_JID_6895_Energie_kation

1 2

--Link1--
%chk=JID_6895.chk
%mem=8GB
%nprocshared=4
# B3LYP/6-311++G(d,p) empiricaldispersion=gd3bj scf=xqc pop=npa geom=check

CID_115757434_JID_6895_Energie_anion

-1 2
