%chk=JID_8081.chk
%mem=8GB
%nprocshared=4
# opt freq B3LYP/6-31G(d) empiricaldispersion=gd3bj scf=xqc

CID_110390367_JID_8081_neutraal

0 1
C          1.07433        0.06635        0.00847
C          0.58718        1.47085       -0.32730
C          0.38085        1.62635       -1.83037
N         -0.65974        1.72764        0.38232
C         -0.93947        2.64413        1.34742
O         -1.99608        2.53678        1.97235
C          0.01888        3.77887        1.63290
C          0.74550        3.58582        2.96257
C          1.93196        2.65213        2.88094
C          1.86822        1.37345        3.45746
C          2.97942        0.57233        3.32572
C          4.12264        0.97191        2.66839
C          4.22357        2.22188        2.10256
C          3.11478        3.06861        2.21622
O          5.09860       -0.01058        2.64975
C          4.47594       -1.05767        3.34183
O          4.99804       -2.14349        3.54823
N          3.21019       -0.70461        3.74680
H          0.38580       -0.69439       -0.37705
H          1.14335       -0.08459        1.08830
H          2.06129       -0.11918       -0.42776
H          1.35190        2.18008       -0.00898
H         -0.37844        0.93000       -2.20377
H          0.04659        2.64058       -2.07360
H          1.31267        1.43662       -2.37375
H         -1.40003        1.04260        0.27777
H          0.70099        3.96202        0.79959
H         -0.60343        4.68106        1.70102
H          1.11182        4.55862        3.31507
H          0.04803        3.23306        3.73291
H          0.97817        1.02474        3.96993
H          5.12511        2.53680        1.58953
H          3.16812        4.06499        1.77945
H          2.59225       -1.31483        4.25523

--Link1--
%chk=JID_8081.chk
%mem=8GB
%nprocshared=4
# B3LYP/6-311++G(d,p) empiricaldispersion=gd3bj scf=xqc pop=npa geom=check

CID_110390367_JID_8081_Energie_neutraal

0 1

--Link1--
%chk=JID_8081.chk
%mem=8GB
%nprocshared=4
# B3LYP/6-311++G(d,p) empiricaldispersion=gd3bj scf=xqc pop=npa geom=check

CID_110390367_JID_8081_Energie_kation

1 2

--Link1--
%chk=JID_8081.chk
%mem=8GB
%nprocshared=4
# B3LYP/6-311++G(d,p) empiricaldispersion=gd3bj scf=xqc pop=npa geom=check

CID_110390367_JID_8081_Energie_anion

-1 2
