%chk=JID_6780.chk
%mem=8GB
%nprocshared=4
# opt=(cartesian,calcfc) freq B3LYP/6-31G(d) empiricaldispersion=gd3bj scf=xqc

CID_15531649_JID_6780_neutraal

0 1
6	-2.599929	 3.262638	 -0.311869
6	-2.350337	 1.779956	 -0.175998
6	-1.055707	 1.275259	 -0.129625
6	-0.826407	 -0.105715	 0.008189
6	-1.941551	 -0.973778	 0.068120
6	-3.249538	 -0.483638	 0.019808
6	-3.439874	 0.885968	 -0.093880
16	-1.442595	 -2.654755	 0.173172
6	0.237272	 -2.177694	 0.138824
6	0.433349	 -0.828718	 0.059344
6	1.770055	 -0.202685	 0.033409
6	2.790799	 -0.734112	 -0.770393
6	4.061337	 -0.162164	 -0.780986
6	4.333777	 0.958019	 0.006044
6	3.327583	 1.495742	 0.809894
6	2.058507	 0.920216	 0.826332
1	-3.108776	 3.663858	 0.574836
1	-1.662980	 3.814168	 -0.438106
1	-3.238871	 3.483298	 -1.177557
1	-0.210765	 1.951730	 -0.211902
1	-4.098446	 -1.159181	 0.066328
1	-4.452055	 1.281163	 -0.129774
1	1.005056	 -2.935785	 0.218099
1	2.572105	 -1.589488	 -1.403096
1	4.836948	 -0.585569	 -1.413143
1	5.322032	 1.408758	 -0.007696
1	3.532750	 2.361901	 1.432990
1	1.288494	 1.325458	 1.474991

--Link1--
%chk=JID_6780.chk
%mem=8GB
%nprocshared=4
# B3LYP/6-311++G(d,p) empiricaldispersion=gd3bj scf=xqc pop=npa geom=check

CID_15531649_JID_6780_Energie_neutraal

0 1

--Link1--
%chk=JID_6780.chk
%mem=8GB
%nprocshared=4
# B3LYP/6-311++G(d,p) empiricaldispersion=gd3bj scf=xqc pop=npa geom=check

CID_15531649_JID_6780_Energie_kation

1 2

--Link1--
%chk=JID_6780.chk
%mem=8GB
%nprocshared=4
# B3LYP/6-311++G(d,p) empiricaldispersion=gd3bj scf=xqc pop=npa geom=check

CID_15531649_JID_6780_Energie_anion

-1 2
