%chk=JID_3542.chk
%mem=8GB
%nprocshared=4
# opt freq B3LYP/6-31G(d) empiricaldispersion=gd3bj scf=xqc

CID_153095197_JID_3542_neutraal

0 1
C          1.02872        0.03591       -0.08880
C          0.41953        0.31768       -1.48912
C         -0.64145        1.44680       -1.59992
C         -2.06678        0.94252       -1.26294
C         -2.63206       -0.43666       -1.89497
C         -1.50991       -1.07512       -1.05599
C         -0.25011       -0.94845       -1.94979
C         -2.02273        0.09315        0.00760
C         -1.11929        0.28625        1.20406
C          0.10844       -0.58287        0.99465
O         -0.30202       -1.98567        0.78596
C         -1.29365       -2.28043       -0.14053
O         -1.82967       -3.37916       -0.19904
H          1.44316        0.97655        0.29559
H          1.87605       -0.64883       -0.22725
H          1.25456        0.57169       -2.15392
H         -0.36839        2.29062       -0.95645
H         -0.65256        1.82174       -2.63089
H         -2.79716        1.75803       -1.25703
H         -2.57603       -0.50128       -2.98579
H         -3.65718       -0.70640       -1.60847
H         -0.49033       -0.89773       -3.01903
H          0.41999       -1.81215       -1.84908
H         -3.03484       -0.09047        0.41054
H         -1.64078       -0.06013        2.10527
H         -0.86620        1.33969        1.36100
H          0.68043       -0.60080        1.93003

--Link1--
%chk=JID_3542.chk
%mem=8GB
%nprocshared=4
# B3LYP/6-311++G(d,p) empiricaldispersion=gd3bj scf=xqc pop=npa geom=check

CID_153095197_JID_3542_Energie_neutraal

0 1

--Link1--
%chk=JID_3542.chk
%mem=8GB
%nprocshared=4
# B3LYP/6-311++G(d,p) empiricaldispersion=gd3bj scf=xqc pop=npa geom=check

CID_153095197_JID_3542_Energie_kation

1 2

--Link1--
%chk=JID_3542.chk
%mem=8GB
%nprocshared=4
# B3LYP/6-311++G(d,p) empiricaldispersion=gd3bj scf=xqc pop=npa geom=check

CID_153095197_JID_3542_Energie_anion

-1 2
