%chk=JID_9093.chk
%mem=8GB
%nprocshared=4
# opt freq B3LYP/6-31G(d) empiricaldispersion=gd3bj scf=xqc

CID_104467331_JID_9093_neutraal

0 1
C          1.07976        0.06015       -0.00446
C          0.64746       -1.32283       -0.49124
C          0.95929       -2.44937        0.50704
S          0.08109       -2.29076        2.09760
O         -0.19701       -3.67787        2.59646
C          1.47551       -1.65433        3.06126
N         -0.76575       -1.30225       -0.87478
C         -1.31718       -1.03389       -2.09639
O         -2.51951       -0.76615       -2.14804
C         -0.46445       -1.09292       -3.35185
C          0.14668        0.24530       -3.64019
C         -0.48185        1.46912       -3.77081
C          0.43717        2.52355       -4.04044
C          1.73921        2.07324       -4.12351
S          1.83620        0.38260       -3.89911
S          3.27422        2.90184       -4.40716
O          4.02306        2.81589       -3.17563
O          3.77603        2.43408       -5.67680
N          2.93204        4.53545       -4.62378
H          0.48926        0.39214        0.85561
H          0.94004        0.81323       -0.78592
H          2.13785        0.06244        0.27606
H          1.23567       -1.54182       -1.38656
H          0.63625       -3.40407        0.07548
H          2.03611       -2.52463        0.68853
H          2.30123       -2.36955        3.03862
H          1.80127       -0.69225        2.66333
H          1.14640       -1.52008        4.09459
H         -1.45423       -1.21490       -0.13329
H          0.27616       -1.89392       -3.26587
H         -1.11844       -1.37840       -4.18542
H         -1.55383        1.60296       -3.66410
H          0.16228        3.56430       -4.16441
H          3.44032        5.07138       -3.91802
H          3.20324        4.80072       -5.57266

--Link1--
%chk=JID_9093.chk
%mem=8GB
%nprocshared=4
# B3LYP/6-311++G(d,p) empiricaldispersion=gd3bj scf=xqc pop=npa geom=check

CID_104467331_JID_9093_Energie_neutraal

0 1

--Link1--
%chk=JID_9093.chk
%mem=8GB
%nprocshared=4
# B3LYP/6-311++G(d,p) empiricaldispersion=gd3bj scf=xqc pop=npa geom=check

CID_104467331_JID_9093_Energie_kation

1 2

--Link1--
%chk=JID_9093.chk
%mem=8GB
%nprocshared=4
# B3LYP/6-311++G(d,p) empiricaldispersion=gd3bj scf=xqc pop=npa geom=check

CID_104467331_JID_9093_Energie_anion

-1 2
