%chk=JID_2915.chk
%mem=8GB
%nprocshared=4
# opt freq B3LYP/6-31G(d) empiricaldispersion=gd3bj scf=xqc

CID_147044807_JID_2915_neutraal

0 1
C          1.02641       -0.05820       -0.07691
C          0.26410        0.84001        0.87279
C          0.73754        2.26679        1.03893
C         -0.56863        2.02047        0.30960
C         -0.57214        2.25780       -1.18904
C         -1.86128        2.43082        1.03063
C         -2.25014        3.91300        0.81570
C         -3.36686        3.92055       -0.24028
C         -3.98074        2.55377       -0.18765
C         -3.06733        1.64648        0.56716
C         -4.44701        1.93776        1.10501
C         -0.20826        0.10121        2.10607
H          1.63003        0.50092       -0.79773
H          0.33000       -0.69805       -0.62839
H          1.71929       -0.70407        0.47341
H          0.70278        2.71504        2.02704
H          1.59657        2.60037        0.46511
H         -1.32301        1.62929       -1.67762
H         -0.78609        3.30447       -1.42111
H          0.39361        2.04282       -1.65492
H         -1.74422        2.28524        2.10958
H         -2.66134        4.30880        1.75382
H         -1.40948        4.55739        0.54086
H         -4.10415        4.70266       -0.03412
H         -2.95275        4.10232       -1.23714
H         -4.42046        2.22445       -1.11798
H         -2.85806        0.65132        0.20199
H         -5.18717        1.14712        1.04866
H         -4.54658        2.56780        1.98102
H         -1.07299       -0.52434        1.86293
H          0.58343       -0.55024        2.49215
H         -0.48282        0.77209        2.92515

--Link1--
%chk=JID_2915.chk
%mem=8GB
%nprocshared=4
# B3LYP/6-311++G(d,p) empiricaldispersion=gd3bj scf=xqc pop=npa geom=check

CID_147044807_JID_2915_Energie_neutraal

0 1

--Link1--
%chk=JID_2915.chk
%mem=8GB
%nprocshared=4
# B3LYP/6-311++G(d,p) empiricaldispersion=gd3bj scf=xqc pop=npa geom=check

CID_147044807_JID_2915_Energie_kation

1 2

--Link1--
%chk=JID_2915.chk
%mem=8GB
%nprocshared=4
# B3LYP/6-311++G(d,p) empiricaldispersion=gd3bj scf=xqc pop=npa geom=check

CID_147044807_JID_2915_Energie_anion

-1 2
