%chk=JID_8299.chk
%mem=8GB
%nprocshared=4
# opt freq B3LYP/6-31G(d) empiricaldispersion=gd3bj scf=xqc

CID_112674743_JID_8299_neutraal

0 1
C         -1.83700        0.00000        0.00400
C         -1.06052        1.15783        0.02784
C          0.32491        1.10515        0.25466
C          0.93642       -0.16825        0.47820
C          0.14760       -1.32777        0.39447
C         -1.23643       -1.23938        0.18508
S          0.80218       -2.95933        0.57065
O         -0.13953       -3.74721        1.33748
O          1.30824       -3.40826       -0.70480
N          2.14369       -2.82634        1.59015
N          2.34414       -0.22134        0.60930
N          1.11649        2.27223        0.28997
C          0.57705        3.48989        0.92162
C          0.75805        3.41190        2.44445
O          2.15248        3.41526        2.77129
C          1.98291        2.45339       -0.89490
C          3.33294        3.07541       -0.49532
O          3.84917        2.48139        0.69772
H         -2.90653        0.06553       -0.17990
H         -1.55864        2.10077       -0.17244
H         -1.84758       -2.13937        0.14135
H          1.96311       -3.37753        2.43097
H          2.96289       -3.14440        1.06583
H          2.64998       -0.95123        1.25173
H          2.72561        0.69528        0.86113
H          1.12722        4.36676        0.56092
H         -0.47208        3.66880        0.67176
H          0.29885        4.28346        2.92091
H          0.30656        2.50315        2.85508
H          2.21112        3.26208        3.73132
H          2.18895        1.49558       -1.38813
H          1.48362        3.08375       -1.64068
H          4.06479        2.93709       -1.29705
H          3.23576        4.15130       -0.31824
H          3.19033        2.70864        1.39417

--Link1--
%chk=JID_8299.chk
%mem=8GB
%nprocshared=4
# B3LYP/6-311++G(d,p) empiricaldispersion=gd3bj scf=xqc pop=npa geom=check

CID_112674743_JID_8299_Energie_neutraal

0 1

--Link1--
%chk=JID_8299.chk
%mem=8GB
%nprocshared=4
# B3LYP/6-311++G(d,p) empiricaldispersion=gd3bj scf=xqc pop=npa geom=check

CID_112674743_JID_8299_Energie_kation

1 2

--Link1--
%chk=JID_8299.chk
%mem=8GB
%nprocshared=4
# B3LYP/6-311++G(d,p) empiricaldispersion=gd3bj scf=xqc pop=npa geom=check

CID_112674743_JID_8299_Energie_anion

-1 2
