%chk=JID_9750.chk
%mem=8GB
%nprocshared=4
# opt freq B3LYP/6-31G(d) empiricaldispersion=gd3bj scf=xqc

CID_64618196_JID_9750_neutraal

0 1
C          0.98355       -0.07124        0.06823
C          1.03315        1.03324       -0.97117
C          1.66900        0.55620       -2.25080
O          0.95246        0.11114       -3.15564
N          3.00898        0.57605       -2.48009
C          4.15072        0.96097       -1.75728
C          5.36491        0.90728       -2.45479
C          6.58353        1.26115       -1.85203
C          6.62165        1.67838       -0.52875
C          5.40904        1.71975        0.17213
C          4.19025        1.36713       -0.43096
N          7.76568        2.04073        0.20267
C          9.09134        2.18241       -0.05972
O          9.82481        2.46654        0.89474
C          9.69267        2.02754       -1.42958
C         10.24445        0.64863       -1.75789
C         11.30602        0.02958       -0.81653
N         10.73671       -1.30454       -1.13312
C          9.44816       -0.64017       -1.44132
H          1.97314       -0.48824        0.27558
H          0.35213       -0.89654       -0.27864
H          0.56286        0.30613        1.00518
H          0.00807        1.34468       -1.20918
H          1.52290        1.93808       -0.60755
H          3.18325        0.23983       -3.42177
H          5.38854        0.58479       -3.49466
H          7.46495        1.16417       -2.46750
H          5.38678        2.02589        1.21699
H          3.31473        1.41073        0.19945
H          7.60609        2.23999        1.18541
H          9.00449        2.38731       -2.19577
H         10.52175        2.74782       -1.48092
H         10.59743        0.65368       -2.80192
H         12.34679        0.16709       -1.12379
H         11.21907        0.28835        0.24423
H         11.17173       -1.74147       -1.94635
H          8.78042       -0.59399       -0.57464
H          8.90032       -1.07543       -2.28214

--Link1--
%chk=JID_9750.chk
%mem=8GB
%nprocshared=4
# B3LYP/6-311++G(d,p) empiricaldispersion=gd3bj scf=xqc pop=npa geom=check

CID_64618196_JID_9750_Energie_neutraal

0 1

--Link1--
%chk=JID_9750.chk
%mem=8GB
%nprocshared=4
# B3LYP/6-311++G(d,p) empiricaldispersion=gd3bj scf=xqc pop=npa geom=check

CID_64618196_JID_9750_Energie_kation

1 2

--Link1--
%chk=JID_9750.chk
%mem=8GB
%nprocshared=4
# B3LYP/6-311++G(d,p) empiricaldispersion=gd3bj scf=xqc pop=npa geom=check

CID_64618196_JID_9750_Energie_anion

-1 2
