%chk=JID_9920.chk
%mem=8GB
%nprocshared=4
# opt=(cartesian,calcfc) freq B3LYP/6-31G(d) empiricaldispersion=gd3bj scf=xqc

CID_113491252_JID_9920_neutraal

0 1
6	-1.462842	 1.315659	 0.428627
6	-2.358574	 0.078860	 0.319191
6	-3.546228	 0.181029	 1.297288
6	-4.576770	 1.219367	 0.848748
8	-5.055071	 0.950050	 -0.460092
6	-4.005301	 0.979664	 -1.417799
6	-2.929546	 -0.065356	 -1.112773
7	-1.601727	 -1.149015	 0.717889
6	-0.571207	 -1.608755	 -0.153873
8	-0.754919	 -2.511326	 -0.966636
7	0.648299	 -1.007037	 -0.000829
6	1.137858	 -0.408509	 1.254557
6	2.607707	 -0.842055	 1.307023
6	3.012632	 -0.904962	 -0.179187
6	1.759644	 -1.515655	 -0.822989
6	3.326779	 0.476800	 -0.762347
6	4.595281	 1.082958	 -0.206905
8	5.402615	 0.523664	 0.503830
8	4.752095	 2.365982	 -0.617465
1	-1.090370	 1.427968	 1.450676
1	-2.014727	 2.222361	 0.168688
1	-0.610566	 1.239095	 -0.251995
1	-4.051748	 -0.792780	 1.342294
1	-3.182224	 0.408346	 2.306337
1	-4.153205	 2.236830	 0.894502
1	-5.452297	 1.196401	 1.504043
1	-3.568473	 1.991601	 -1.463209
1	-4.473341	 0.777731	 -2.385434
1	-2.122124	 -0.001862	 -1.852281
1	-3.372763	 -1.062764	 -1.214039
1	-2.277602	 -1.912163	 0.714881
1	0.534423	 -0.757377	 2.094630
1	1.056786	 0.684219	 1.223362
1	3.234466	 -0.164978	 1.892035
1	2.691599	 -1.841326	 1.749010
1	3.883799	 -1.549193	 -0.323558
1	1.622328	 -1.230309	 -1.870981
1	1.776024	 -2.610650	 -0.784561
1	3.447733	 0.415683	 -1.851895
1	2.504796	 1.184308	 -0.599835
1	5.597101	 2.669987	 -0.236566

--Link1--
%chk=JID_9920.chk
%mem=8GB
%nprocshared=4
# B3LYP/6-311++G(d,p) empiricaldispersion=gd3bj scf=xqc pop=npa geom=check

CID_113491252_JID_9920_Energie_neutraal

0 1

--Link1--
%chk=JID_9920.chk
%mem=8GB
%nprocshared=4
# B3LYP/6-311++G(d,p) empiricaldispersion=gd3bj scf=xqc pop=npa geom=check

CID_113491252_JID_9920_Energie_kation

1 2

--Link1--
%chk=JID_9920.chk
%mem=8GB
%nprocshared=4
# B3LYP/6-311++G(d,p) empiricaldispersion=gd3bj scf=xqc pop=npa geom=check

CID_113491252_JID_9920_Energie_anion

-1 2
