%chk=JID_3935.chk
%mem=8GB
%nprocshared=4
# opt freq B3LYP/6-31G(d) empiricaldispersion=gd3bj scf=xqc

CID_104167219_JID_3935_neutraal

0 1
C          0.95435       -0.08894        0.00216
C          0.42264       -0.93789        1.15573
C          0.86846       -0.45293        2.56111
N          0.64639        0.98034        2.81511
C          1.06300        1.38260        4.16759
C          2.59316        1.53343        4.36005
C          2.96469        2.01555        5.76827
C          2.55476        3.45184        6.08986
C          3.15080        4.47332        5.12581
C          2.76244        4.23139        3.67413
S          3.34789        2.61744        3.08132
O         -0.98448       -1.18042        1.02472
C         -1.83569       -0.08637        1.33094
H          0.54132        0.92392        0.00588
H          0.67052       -0.53614       -0.95676
H          2.04566       -0.01467        0.04157
H          0.87150       -1.93187        1.03084
H          0.32729       -1.03922        3.31333
H          1.93690       -0.67441        2.66322
H          1.19863        1.52564        2.14728
H          0.56672        2.33717        4.37338
H          0.66138        0.68056        4.90911
H          3.05280        0.54779        4.22403
H          4.05004        1.91896        5.90688
H          2.50806        1.34664        6.50865
H          1.46249        3.54125        6.09376
H          2.88495        3.69286        7.10758
H          2.80888        5.47315        5.41964
H          4.24379        4.48066        5.22571
H          1.67779        4.29578        3.54162
H          3.21029        5.00416        3.04100
H         -1.86234        0.09226        2.40885
H         -1.54779        0.82004        0.79317
H         -2.84932       -0.35468        1.01877

--Link1--
%chk=JID_3935.chk
%mem=8GB
%nprocshared=4
# B3LYP/6-311++G(d,p) empiricaldispersion=gd3bj scf=xqc pop=npa geom=check

CID_104167219_JID_3935_Energie_neutraal

0 1

--Link1--
%chk=JID_3935.chk
%mem=8GB
%nprocshared=4
# B3LYP/6-311++G(d,p) empiricaldispersion=gd3bj scf=xqc pop=npa geom=check

CID_104167219_JID_3935_Energie_kation

1 2

--Link1--
%chk=JID_3935.chk
%mem=8GB
%nprocshared=4
# B3LYP/6-311++G(d,p) empiricaldispersion=gd3bj scf=xqc pop=npa geom=check

CID_104167219_JID_3935_Energie_anion

-1 2
