%chk=JID_9365.chk
%mem=8GB
%nprocshared=4
# opt freq B3LYP/6-31G(d) empiricaldispersion=gd3bj scf=xqc

CID_82501381_JID_9365_neutraal

0 1
C          0.94903       -0.08514       -0.01237
C          0.58626        1.17542        0.68633
C         -0.08776        1.27330        1.88892
C         -0.20946        2.64282        2.25147
C          0.41470        3.36607        1.23816
N          0.87013        2.46457        0.28251
C          1.52752        2.90983       -0.94651
C          2.53317        2.11223       -1.74936
C          1.17278        2.35024       -2.31146
C          0.59002        4.84114        1.09014
C         -0.90122        3.11054        3.51014
C          0.07531        3.43289        4.67694
N          0.60898        4.81927        4.59340
C          0.06258        5.68789        5.66111
C          0.65432        5.44606        7.06956
N          2.12571        5.48988        7.09499
C          2.65773        4.56352        6.08105
C          2.08596        4.82610        4.66896
O         -1.76978        4.22219        3.27411
H          0.60082       -0.10773       -1.04527
H          0.48491       -0.94325        0.48820
H          2.02904       -0.25169        0.02163
H         -0.45861        0.42917        2.45786
H          1.70581        3.98162       -0.95561
H          3.36363        2.65765       -2.18746
H          2.80806        1.11172       -1.45365
H          0.46894        1.53258       -2.38065
H          1.07593        3.05696       -3.12959
H          0.16171        5.40354        1.91889
H          1.65366        5.09850        1.04890
H          0.10039        5.19786        0.17794
H         -1.55379        2.29538        3.84828
H         -0.47891        3.30284        5.61516
H          0.87333        2.67935        4.69742
H          0.26480        6.72871        5.37485
H         -1.03030        5.60276        5.70036
H          0.31667        4.48089        7.46476
H          0.27169        6.21193        7.75363
H          2.41540        6.43445        6.83853
H          2.45260        3.53175        6.39061
H          3.74790        4.66955        6.05224
H          2.50810        4.10699        3.95603
H          2.43396        5.81075        4.32920
H         -1.18055        4.99254        3.37830

--Link1--
%chk=JID_9365.chk
%mem=8GB
%nprocshared=4
# B3LYP/6-311++G(d,p) empiricaldispersion=gd3bj scf=xqc pop=npa geom=check

CID_82501381_JID_9365_Energie_neutraal

0 1

--Link1--
%chk=JID_9365.chk
%mem=8GB
%nprocshared=4
# B3LYP/6-311++G(d,p) empiricaldispersion=gd3bj scf=xqc pop=npa geom=check

CID_82501381_JID_9365_Energie_kation

1 2

--Link1--
%chk=JID_9365.chk
%mem=8GB
%nprocshared=4
# B3LYP/6-311++G(d,p) empiricaldispersion=gd3bj scf=xqc pop=npa geom=check

CID_82501381_JID_9365_Energie_anion

-1 2
