%chk=JID_7945.chk
%mem=8GB
%nprocshared=4
# opt freq B3LYP/6-31G(d) empiricaldispersion=gd3bj scf=xqc

CID_138105687_JID_7945_neutraal

0 1
C          0.98078       -0.04097        0.08917
C          0.95608       -0.83969        1.37647
O          2.15460       -0.77854        2.13620
C          3.34070       -1.35702        1.59247
C          3.25351       -2.88034        1.27361
N          2.86421       -3.22376       -0.10779
C          3.74268       -2.96294       -1.15575
O          3.38275       -2.32946       -2.15717
C          5.17550       -3.51459       -1.09697
C          6.17885       -2.59844       -0.41054
C          5.25073       -4.95467       -0.59303
C          1.67657       -3.85589       -0.42860
N          0.81132       -4.28800        0.42696
N          1.34834       -4.06779       -1.72661
O          3.88744       -0.61913        0.50602
C          4.34675        0.67517        0.88455
C          4.74535        1.42115       -0.37417
H         -0.01982        0.00147       -0.35184
H          1.64820       -0.49021       -0.65035
H          1.32634        0.98131        0.26965
H          0.17465       -0.41635        2.01773
H          0.66423       -1.87293        1.20095
H          4.06226       -1.29249        2.41777
H          4.24294       -3.30555        1.44242
H          2.60484       -3.35522        2.01079
H          5.48298       -3.56537       -2.15252
H          6.04828       -2.55581        0.67265
H          7.20095       -2.94597       -0.59785
H          6.10112       -1.57836       -0.79849
H          4.50167       -5.58113       -1.08934
H          6.23739       -5.38179       -0.80327
H          5.08577       -5.03278        0.48462
H          1.08100       -4.14242        1.39275
H          1.70215       -3.35930       -2.37036
H          0.35935       -4.25432       -1.84109
H          3.55926        1.22983        1.40488
H          5.21185        0.57441        1.54853
H          3.89221        1.50833       -1.05545
H          5.10982        2.42404       -0.13541
H          5.52865        0.88018       -0.91476

--Link1--
%chk=JID_7945.chk
%mem=8GB
%nprocshared=4
# B3LYP/6-311++G(d,p) empiricaldispersion=gd3bj scf=xqc pop=npa geom=check

CID_138105687_JID_7945_Energie_neutraal

0 1

--Link1--
%chk=JID_7945.chk
%mem=8GB
%nprocshared=4
# B3LYP/6-311++G(d,p) empiricaldispersion=gd3bj scf=xqc pop=npa geom=check

CID_138105687_JID_7945_Energie_kation

1 2

--Link1--
%chk=JID_7945.chk
%mem=8GB
%nprocshared=4
# B3LYP/6-311++G(d,p) empiricaldispersion=gd3bj scf=xqc pop=npa geom=check

CID_138105687_JID_7945_Energie_anion

-1 2
