%chk=JID_8475.chk
%mem=8GB
%nprocshared=4
# opt freq B3LYP/6-31G(d) empiricaldispersion=gd3bj scf=xqc

CID_83171414_JID_8475_neutraal

0 1
C          0.95805        0.06597       -0.06235
C          0.30438        1.46377       -0.16625
C          1.02160        2.20144       -1.31822
C         -1.22583        1.29829       -0.47672
O         -2.11249        1.82337        0.20921
C         -1.64254        0.47030       -1.68573
C         -1.64077        1.24820       -2.95399
C         -1.08027        0.87090       -4.15832
O         -1.26679        1.82889       -5.10009
C         -1.96712        2.83030       -4.51145
C         -2.23111        2.52188       -3.19828
N          0.53201        2.23625        1.10827
C         -0.03547        3.59265        1.12023
C          0.99079        4.59170        1.66239
C          1.17915        4.57809        3.17662
C          1.48514        3.21139        3.78298
C          0.30638        2.24891        3.66550
C          0.24838        1.48096        2.33770
H          1.03423       -0.42385       -1.03962
H          0.38229       -0.60786        0.58214
H          1.98108        0.13295        0.32711
H          1.12694        1.56194       -2.20144
H          0.48714        3.09818       -1.64595
H          2.03635        2.49809       -1.02637
H         -1.02015       -0.42431       -1.76411
H         -2.65966        0.10258       -1.49765
H         -0.53670       -0.00339       -4.49047
H         -2.19892        3.67501       -5.14514
H         -2.77654        3.14071       -2.49725
H         -0.97550        3.64914        1.68279
H         -0.29131        3.93275        0.11196
H          0.67523        5.60241        1.37313
H          1.95987        4.42940        1.17261
H          1.99710        5.26464        3.42782
H          0.28000        4.99071        3.65185
H          2.39155        2.78240        3.34038
H          1.69764        3.36293        4.84872
H          0.38331        1.50695        4.47096
H         -0.63727        2.78066        3.83814
H          0.98877        0.67705        2.42635
H         -0.73452        0.99800        2.28208

--Link1--
%chk=JID_8475.chk
%mem=8GB
%nprocshared=4
# B3LYP/6-311++G(d,p) empiricaldispersion=gd3bj scf=xqc pop=npa geom=check

CID_83171414_JID_8475_Energie_neutraal

0 1

--Link1--
%chk=JID_8475.chk
%mem=8GB
%nprocshared=4
# B3LYP/6-311++G(d,p) empiricaldispersion=gd3bj scf=xqc pop=npa geom=check

CID_83171414_JID_8475_Energie_kation

1 2

--Link1--
%chk=JID_8475.chk
%mem=8GB
%nprocshared=4
# B3LYP/6-311++G(d,p) empiricaldispersion=gd3bj scf=xqc pop=npa geom=check

CID_83171414_JID_8475_Energie_anion

-1 2
