%chk=JID_1782.chk
%mem=8GB
%nprocshared=4
# opt freq B3LYP/6-31G(d) empiricaldispersion=gd3bj scf=xqc

CID_105430407_JID_1782_neutraal

0 1
C          1.00490       -0.09236       -0.03802
C          0.31924        1.22593        0.32511
C          0.41908        2.19637       -0.85539
C         -1.15910        1.02755        0.71277
C         -1.38819        0.22903        1.99482
C         -0.93383        0.99500        3.22689
O         -1.61019        1.95605        3.61637
C          0.42046        0.53389        3.87567
C          1.23937        1.57665        4.66971
C          1.46644        0.43890        5.67534
N          0.23103       -0.19479        5.16740
H          0.48355       -0.59769       -0.85811
H          1.04001       -0.77675        0.81400
H          2.03873        0.08374       -0.35460
H          0.85783        1.67663        1.16700
H         -0.09925        1.80521       -1.73748
H         -0.02543        3.16460       -0.60166
H          1.46538        2.37263       -1.12695
H         -1.63293        2.01173        0.82287
H         -1.68230        0.52236       -0.10923
H         -2.46031        0.03281        2.11828
H         -0.90350       -0.75092        1.96652
H          1.05047       -0.03022        3.17487
H          2.13436        1.96194        4.17459
H          0.65894        2.41623        5.06932
H          1.43692        0.72502        6.72980
H          2.37210       -0.14985        5.48821
H          0.26489       -1.21025        5.10640

--Link1--
%chk=JID_1782.chk
%mem=8GB
%nprocshared=4
# B3LYP/6-311++G(d,p) empiricaldispersion=gd3bj scf=xqc pop=npa geom=check

CID_105430407_JID_1782_Energie_neutraal

0 1

--Link1--
%chk=JID_1782.chk
%mem=8GB
%nprocshared=4
# B3LYP/6-311++G(d,p) empiricaldispersion=gd3bj scf=xqc pop=npa geom=check

CID_105430407_JID_1782_Energie_kation

1 2

--Link1--
%chk=JID_1782.chk
%mem=8GB
%nprocshared=4
# B3LYP/6-311++G(d,p) empiricaldispersion=gd3bj scf=xqc pop=npa geom=check

CID_105430407_JID_1782_Energie_anion

-1 2
