%chk=JID_8424.chk
%mem=8GB
%nprocshared=4
# opt freq B3LYP/6-31G(d) empiricaldispersion=gd3bj scf=xqc

CID_116960093_JID_8424_neutraal

0 1
C          0.95301       -0.01756        0.08651
C          0.64703       -1.48605       -0.17793
C          1.38216       -2.45407        0.78535
C          1.02503       -2.18453        2.27227
N         -0.40841       -2.24102        2.56533
C          1.14524       -3.96151        0.41774
C          1.20606       -4.29605       -1.08188
C          0.02422       -4.83164       -1.64193
C         -0.06006       -5.14934       -2.99130
C          1.03555       -4.93512       -3.81680
C          2.23116       -4.41223       -3.30692
C          3.31239       -4.20663       -4.18050
C          4.52146       -3.69181       -3.72239
C          4.66590       -3.38397       -2.37947
C          3.59848       -3.58470       -1.49888
C          2.34581       -4.09232       -1.92614
N          2.04497       -4.83875        1.20328
C          1.47285       -6.16255        1.41859
H          0.54363        0.31645        1.04392
H          0.50461        0.60406       -0.69547
H          2.03211        0.16568        0.08534
H         -0.43618       -1.64889       -0.13888
H          0.95091       -1.68447       -1.21091
H          2.45133       -2.23160        0.69686
H          1.53862       -2.90465        2.91845
H          1.40187       -1.19967        2.57076
H         -0.54421       -2.12251        3.56890
H         -0.87939       -1.45214        2.12494
H          0.11939       -4.16801        0.75364
H         -0.85125       -5.00046       -1.01655
H         -0.98039       -5.55782       -3.39960
H          0.94761       -5.18319       -4.87247
H          3.21815       -4.44662       -5.23773
H          5.34550       -3.53564       -4.41285
H          5.60685       -2.98575       -2.00882
H          3.77640       -3.33279       -0.45942
H          2.92557       -4.94757        0.70544
H          1.30999       -6.69935        0.47914
H          2.16360       -6.75768        2.02427
H          0.52820       -6.10274        1.96869

--Link1--
%chk=JID_8424.chk
%mem=8GB
%nprocshared=4
# B3LYP/6-311++G(d,p) empiricaldispersion=gd3bj scf=xqc pop=npa geom=check

CID_116960093_JID_8424_Energie_neutraal

0 1

--Link1--
%chk=JID_8424.chk
%mem=8GB
%nprocshared=4
# B3LYP/6-311++G(d,p) empiricaldispersion=gd3bj scf=xqc pop=npa geom=check

CID_116960093_JID_8424_Energie_kation

1 2

--Link1--
%chk=JID_8424.chk
%mem=8GB
%nprocshared=4
# B3LYP/6-311++G(d,p) empiricaldispersion=gd3bj scf=xqc pop=npa geom=check

CID_116960093_JID_8424_Energie_anion

-1 2
