%chk=JID_7629.chk
%mem=8GB
%nprocshared=4
# opt freq B3LYP/6-31G(d) empiricaldispersion=gd3bj scf=xqc

CID_117812828_JID_7629_neutraal

0 1
C          1.04819       -0.05647       -0.06699
C          0.71729       -0.39819        1.36358
C         -0.25661        0.26002        2.02325
C         -0.71682        0.03488        3.43984
C         -0.02437        0.94809        4.46357
C         -0.60062        2.35177        4.54207
C         -1.51907        2.78116        5.43240
C         -2.15347        1.99909        6.47957
C         -3.07929        2.42105        7.36766
C         -3.57434        1.50373        8.44781
O         -4.55519        1.82214        9.12144
C         -2.86450        0.19967        8.71625
C         -3.63470        3.81266        7.31431
O         -4.00829        4.31149        6.25250
C         -3.72244        4.58846        8.60406
C         -0.02926        3.33104        3.54308
C          1.56663       -1.49210        1.94977
H          0.41578        0.74716       -0.45871
H          0.90759       -0.93319       -0.70761
H          2.08979        0.27130       -0.14749
H         -0.80656        1.03791        1.49414
H         -1.80529        0.16907        3.48092
H         -0.54729       -1.00940        3.72569
H         -0.08413        0.46409        5.44478
H          1.05258        1.00622        4.25745
H         -1.82533        3.82552        5.36350
H         -1.81436        0.97023        6.53277
H         -3.06689       -0.51187        7.91217
H         -1.78997        0.36535        8.83189
H         -3.23460       -0.22322        9.65572
H         -4.75029        4.56945        8.97437
H         -3.04834        4.17623        9.35977
H         -3.41727        5.62238        8.41798
H          1.06515        3.30963        3.56986
H         -0.36042        3.09164        2.52959
H         -0.33566        4.36204        3.75117
H          1.37136       -2.43707        1.43231
H          2.62797       -1.24809        1.83374
H          1.39159       -1.65168        3.01633

--Link1--
%chk=JID_7629.chk
%mem=8GB
%nprocshared=4
# B3LYP/6-311++G(d,p) empiricaldispersion=gd3bj scf=xqc pop=npa geom=check

CID_117812828_JID_7629_Energie_neutraal

0 1

--Link1--
%chk=JID_7629.chk
%mem=8GB
%nprocshared=4
# B3LYP/6-311++G(d,p) empiricaldispersion=gd3bj scf=xqc pop=npa geom=check

CID_117812828_JID_7629_Energie_kation

1 2

--Link1--
%chk=JID_7629.chk
%mem=8GB
%nprocshared=4
# B3LYP/6-311++G(d,p) empiricaldispersion=gd3bj scf=xqc pop=npa geom=check

CID_117812828_JID_7629_Energie_anion

-1 2
