%chk=JID_4124.chk
%mem=8GB
%nprocshared=4
# opt freq B3LYP/6-31G(d) empiricaldispersion=gd3bj scf=xqc

CID_116848396_JID_4124_neutraal

0 1
C          1.85400        1.50000       -0.02200
C          0.56972        0.71812       -0.06758
C          0.56461       -0.67989       -0.23496
C         -0.66164       -1.36611       -0.26405
C         -1.88405       -0.68715       -0.13011
C         -1.85953        0.69812        0.07241
C         -0.64865        1.39159        0.09833
C         -3.21322       -1.41978       -0.16898
C         -3.27700       -2.52053       -1.26226
O         -3.32055       -3.72241       -0.97838
N         -3.32300       -2.14086       -2.59072
N         -3.20513       -0.83110       -3.07601
N         -3.50550       -2.00545        1.15935
C          1.84431       -1.45564       -0.39301
H          2.41667        1.24918        0.88266
H          2.46581        1.28627       -0.90412
H          1.66651        2.57907       -0.01287
H         -0.65914       -2.44861       -0.38886
H         -2.78621        1.24820        0.22245
H         -0.66323        2.46777        0.25881
H         -4.02225       -0.71252       -0.38942
H         -3.35560       -2.91001       -3.25913
H         -3.93985       -0.23803       -2.68496
H         -2.30744       -0.43159       -2.78102
H         -4.32777       -2.60332        1.05668
H         -2.75479       -2.66660        1.36873
H          1.66058       -2.53513       -0.41452
H          2.33801       -1.18267       -1.33091
H          2.51832       -1.25779        0.44649

--Link1--
%chk=JID_4124.chk
%mem=8GB
%nprocshared=4
# B3LYP/6-311++G(d,p) empiricaldispersion=gd3bj scf=xqc pop=npa geom=check

CID_116848396_JID_4124_Energie_neutraal

0 1

--Link1--
%chk=JID_4124.chk
%mem=8GB
%nprocshared=4
# B3LYP/6-311++G(d,p) empiricaldispersion=gd3bj scf=xqc pop=npa geom=check

CID_116848396_JID_4124_Energie_kation

1 2

--Link1--
%chk=JID_4124.chk
%mem=8GB
%nprocshared=4
# B3LYP/6-311++G(d,p) empiricaldispersion=gd3bj scf=xqc pop=npa geom=check

CID_116848396_JID_4124_Energie_anion

-1 2
