%chk=JID_3676.chk
%mem=8GB
%nprocshared=4
# opt freq B3LYP/6-31G(d) empiricaldispersion=gd3bj scf=xqc

CID_144486851_JID_3676_neutraal

0 1
C          0.94344        0.01601        0.08090
C         -0.52801       -0.10475        0.31831
C         -1.39162        0.89810        0.54485
C         -1.05609        2.32049        0.60367
C         -0.73847        2.84029        1.81361
C         -0.72644        2.14755        3.14330
C         -0.98862        3.18458       -0.62031
C         -1.25678        2.65739       -1.83956
C         -1.26317        3.35247       -3.16807
C         -0.70481        4.62170       -0.55605
C         -1.58907        5.60690       -0.32932
C         -3.00568        5.43578       -0.10509
C         -3.83800        6.46057        0.11344
H          1.30326        1.04786        0.11122
H          1.19381       -0.39978       -0.90002
H          1.48718       -0.55241        0.84185
H         -0.92108       -1.11928        0.30204
H         -2.44481        0.67205        0.70154
H         -0.45485        3.88761        1.88988
H          0.29002        2.14922        3.54917
H         -1.37221        2.68924        3.84198
H         -1.07513        1.11269        3.10764
H         -1.50099        1.60074       -1.92361
H         -0.57999        2.83788       -3.85147
H         -2.26860        3.31227       -3.59868
H         -0.95612        4.40002       -3.12245
H          0.34160        4.87859       -0.71105
H         -1.21315        6.62839       -0.31285
H         -3.40770        4.42487       -0.11506
H         -4.89609        6.28218        0.27750
H         -3.49648        7.49023        0.13525

--Link1--
%chk=JID_3676.chk
%mem=8GB
%nprocshared=4
# B3LYP/6-311++G(d,p) empiricaldispersion=gd3bj scf=xqc pop=npa geom=check

CID_144486851_JID_3676_Energie_neutraal

0 1

--Link1--
%chk=JID_3676.chk
%mem=8GB
%nprocshared=4
# B3LYP/6-311++G(d,p) empiricaldispersion=gd3bj scf=xqc pop=npa geom=check

CID_144486851_JID_3676_Energie_kation

1 2

--Link1--
%chk=JID_3676.chk
%mem=8GB
%nprocshared=4
# B3LYP/6-311++G(d,p) empiricaldispersion=gd3bj scf=xqc pop=npa geom=check

CID_144486851_JID_3676_Energie_anion

-1 2
