%chk=JID_10036.chk
%mem=8GB
%nprocshared=4
# opt freq B3LYP/6-31G(d) empiricaldispersion=gd3bj scf=xqc

CID_82952843_JID_10036_neutraal

0 1
C          0.96201       -0.02803       -0.08816
C          0.34925       -1.41956       -0.11251
N          1.10669       -2.30209        0.75785
C          0.77802       -3.61694        0.86607
N          1.67910       -4.55161        1.08984
N          1.14328       -5.82054        1.15222
C         -0.16263       -5.81072        0.98860
S         -0.82745       -4.24374        0.76932
C         -1.03237       -7.03732        1.00967
N         -1.65633       -7.36481       -0.30173
C         -2.67940       -8.41702       -0.12027
C         -4.00625       -7.87697        0.44689
O         -4.97997       -8.92180        0.52716
C         -5.75589       -9.08715       -0.65849
C         -6.93273       -8.12773       -0.66975
C         -0.61143       -7.79666       -1.26786
C         -1.05651       -7.85454       -2.74752
O         -1.06444       -6.58662       -3.40594
C         -2.11684       -5.69821       -3.04601
C         -3.48006       -6.18217       -3.50814
H          0.96176        0.38298        0.92699
H          0.39440        0.64983       -0.73312
H          1.99854       -0.04795       -0.44130
H         -0.69266       -1.34614        0.21881
H          0.35918       -1.79925       -1.14096
H          2.11361       -2.16766        0.70581
H         -0.44199       -7.89027        1.37072
H         -1.80625       -6.85962        1.76566
H         -2.91435       -8.89544       -1.07560
H         -2.30659       -9.23257        0.51417
H         -3.86200       -7.51426        1.46871
H         -4.37776       -7.03607       -0.14954
H         -5.14189       -8.97027       -1.55758
H         -6.13579      -10.11398       -0.65144
H         -6.59817       -7.08661       -0.70330
H         -7.57300       -8.31258       -1.53710
H         -7.52997       -8.24172        0.24087
H          0.23651       -7.10308       -1.23419
H         -0.23451       -8.78436       -0.97183
H         -0.30689       -8.45003       -3.28235
H         -2.00374       -8.37708       -2.90020
H         -2.11084       -5.48802       -1.97517
H         -1.90075       -4.74823       -3.54700
H         -3.80323       -7.06278       -2.94586
H         -4.23248       -5.40064       -3.36661
H         -3.45396       -6.46255       -4.56591

--Link1--
%chk=JID_10036.chk
%mem=8GB
%nprocshared=4
# B3LYP/6-311++G(d,p) empiricaldispersion=gd3bj scf=xqc pop=npa geom=check

CID_82952843_JID_10036_Energie_neutraal

0 1

--Link1--
%chk=JID_10036.chk
%mem=8GB
%nprocshared=4
# B3LYP/6-311++G(d,p) empiricaldispersion=gd3bj scf=xqc pop=npa geom=check

CID_82952843_JID_10036_Energie_kation

1 2

--Link1--
%chk=JID_10036.chk
%mem=8GB
%nprocshared=4
# B3LYP/6-311++G(d,p) empiricaldispersion=gd3bj scf=xqc pop=npa geom=check

CID_82952843_JID_10036_Energie_anion

-1 2
