%chk=JID_10326.chk
%mem=8GB
%nprocshared=4
# opt freq B3LYP/6-31G(d) empiricaldispersion=gd3bj scf=xqc

CID_60965135_JID_10326_neutraal

0 1
C          1.05961        0.07624       -0.02517
C         -0.00632       -0.36572        0.92811
C         -0.92212        0.49424        1.52158
S         -1.95639       -0.31727        2.61227
C         -1.22114       -1.81645        2.30441
N         -1.64011       -2.91508        2.95311
C         -0.94793       -4.00096        2.60754
N          0.03981       -4.08662        1.70523
C          0.40593       -2.97135        1.04316
C         -0.20995       -1.74073        1.35784
N          1.42643       -3.13977        0.09030
C          0.84776       -3.27778       -1.25791
C          1.95871       -3.60666       -2.26402
O          2.47856       -4.91456       -1.99469
C          3.85167       -4.91301       -1.59851
C          4.18954       -6.28883       -1.03595
C          4.34544       -7.15309       -2.27948
C          4.96003       -6.23066       -3.32762
C          4.77151       -4.80040       -2.81333
C         -1.06836        1.96996        1.33660
H          1.30644        1.13378        0.11423
H          0.72464       -0.05856       -1.05782
H          1.98563       -0.48623        0.12475
H         -1.21764       -4.92392        3.11058
H          1.80852       -4.06005        0.32883
H          0.10789       -4.08883       -1.26621
H          0.35272       -2.35025       -1.56307
H          1.53318       -3.63161       -3.27253
H          2.74197       -2.83925       -2.24594
H          4.03153       -4.12938       -0.85462
H          5.13687       -6.25350       -0.48552
H          3.41005       -6.68200       -0.37617
H          3.36336       -7.50029       -2.62244
H          4.96208       -8.03749       -2.09319
H          4.47518       -6.37320       -4.29927
H          6.02625       -6.44554       -3.46054
H          4.37208       -4.15349       -3.60018
H          5.74531       -4.40134       -2.50574
H         -0.25715        2.49521        1.85129
H         -1.02611        2.22776        0.27315
H         -2.01942        2.34648        1.72742

--Link1--
%chk=JID_10326.chk
%mem=8GB
%nprocshared=4
# B3LYP/6-311++G(d,p) empiricaldispersion=gd3bj scf=xqc pop=npa geom=check

CID_60965135_JID_10326_Energie_neutraal

0 1

--Link1--
%chk=JID_10326.chk
%mem=8GB
%nprocshared=4
# B3LYP/6-311++G(d,p) empiricaldispersion=gd3bj scf=xqc pop=npa geom=check

CID_60965135_JID_10326_Energie_kation

1 2

--Link1--
%chk=JID_10326.chk
%mem=8GB
%nprocshared=4
# B3LYP/6-311++G(d,p) empiricaldispersion=gd3bj scf=xqc pop=npa geom=check

CID_60965135_JID_10326_Energie_anion

-1 2
