%chk=JID_3548.chk
%mem=8GB
%nprocshared=4
# opt freq B3LYP/6-31G(d) empiricaldispersion=gd3bj scf=xqc

CID_103284361_JID_3548_neutraal

0 1
C          0.99776        0.03037       -0.09525
C          0.36897        1.00007       -1.08218
C          0.91055        0.84405       -2.50628
C          0.61412       -0.50273       -3.20199
C         -0.88955       -0.76751       -3.30817
C          1.24094       -0.54447       -4.60991
O          2.67047       -0.67106       -4.51984
C          3.40931        0.46003       -4.70742
O          2.94057        1.57148       -4.93157
C          4.91797        0.16470       -4.50405
C          5.14895       -0.32090       -3.06858
C          5.39443       -0.87279       -5.52187
N          5.70493        1.40146       -4.73086
H          0.72433       -1.00436       -0.32142
H          0.65187        0.25032        0.91987
H          2.08943        0.11046       -0.10519
H         -0.72069        0.89631       -1.06403
H          0.58470        2.02141       -0.74494
H          0.50064        1.65853       -3.11746
H          1.99374        1.00297       -2.46407
H          1.06934       -1.30634       -2.61028
H         -1.39939        0.04489       -3.83670
H         -1.08325       -1.69839       -3.85235
H         -1.34709       -0.87530       -2.32028
H          0.89770       -1.43841       -5.14306
H          0.93829        0.31747       -5.21636
H          4.62313       -1.26367       -2.87733
H          6.21229       -0.49555       -2.86801
H          4.78002        0.40824       -2.33775
H          5.19860       -0.53967       -6.54823
H          6.46974       -1.06420       -5.42776
H          4.87746       -1.83008       -5.39060
H          5.19615        2.18962       -4.32253
H          6.59889        1.34658       -4.24771

--Link1--
%chk=JID_3548.chk
%mem=8GB
%nprocshared=4
# B3LYP/6-311++G(d,p) empiricaldispersion=gd3bj scf=xqc pop=npa geom=check

CID_103284361_JID_3548_Energie_neutraal

0 1

--Link1--
%chk=JID_3548.chk
%mem=8GB
%nprocshared=4
# B3LYP/6-311++G(d,p) empiricaldispersion=gd3bj scf=xqc pop=npa geom=check

CID_103284361_JID_3548_Energie_kation

1 2

--Link1--
%chk=JID_3548.chk
%mem=8GB
%nprocshared=4
# B3LYP/6-311++G(d,p) empiricaldispersion=gd3bj scf=xqc pop=npa geom=check

CID_103284361_JID_3548_Energie_anion

-1 2
