%chk=JID_8587.chk
%mem=8GB
%nprocshared=4
# opt freq B3LYP/6-31G(d) empiricaldispersion=gd3bj scf=xqc

CID_45792743_JID_8587_neutraal

0 1
C         -0.02900        0.88300        0.00000
C         -1.29307        1.02855       -0.79391
C         -0.18578        0.14616       -1.30269
N          0.61205        0.59948       -2.44974
C          1.92179       -0.06118       -2.56457
C          1.62622       -1.39729       -3.24770
C          0.34777       -1.14517       -4.04213
C          0.00353        0.31682       -3.75871
C          0.65380        1.30349       -4.74484
C          2.20483        1.22349       -4.80672
C          2.79919        0.87437       -3.41374
C          2.85408        2.47868       -5.42079
C          2.14311        3.33937       -6.27714
C          2.74996        4.46336       -6.84638
C          4.08755        4.74251       -6.58818
C          4.82226        3.89109       -5.77090
C          4.21512        2.76775       -5.20216
O          2.53583        0.13816       -5.69652
H         -0.06426        0.30417        0.91476
H          0.64673        1.72974        0.03390
H         -2.18872        0.54887       -0.41848
H         -1.46944        1.97298       -1.29522
H         -0.36105       -0.92573       -1.23175
H          2.40485       -0.20900       -1.59154
H          2.44768       -1.74557       -3.88114
H          1.43919       -2.17744       -2.49977
H         -0.44535       -1.80440       -3.66863
H          0.47113       -1.35696       -5.10851
H         -1.08059        0.47948       -3.76303
H          0.34774        2.31304       -4.43603
H          0.22746        1.12389       -5.74065
H          2.95008        1.79753       -2.83635
H          3.78232        0.39963       -3.52969
H          1.09982        3.15440       -6.52088
H          2.17382        5.11986       -7.49362
H          4.55774        5.61758       -7.02831
H          5.87135        4.09738       -5.57442
H          4.83022        2.11842       -4.58347
H          2.95150        0.51563       -6.49135

--Link1--
%chk=JID_8587.chk
%mem=8GB
%nprocshared=4
# B3LYP/6-311++G(d,p) empiricaldispersion=gd3bj scf=xqc pop=npa geom=check

CID_45792743_JID_8587_Energie_neutraal

0 1

--Link1--
%chk=JID_8587.chk
%mem=8GB
%nprocshared=4
# B3LYP/6-311++G(d,p) empiricaldispersion=gd3bj scf=xqc pop=npa geom=check

CID_45792743_JID_8587_Energie_kation

1 2

--Link1--
%chk=JID_8587.chk
%mem=8GB
%nprocshared=4
# B3LYP/6-311++G(d,p) empiricaldispersion=gd3bj scf=xqc pop=npa geom=check

CID_45792743_JID_8587_Energie_anion

-1 2
