%chk=JID_5433.chk
%mem=8GB
%nprocshared=4
# opt freq B3LYP/6-31G(d) empiricaldispersion=gd3bj scf=xqc

CID_83037429_JID_5433_neutraal

0 1
C          0.92530        0.05409       -0.03865
C          1.34146        0.47101       -1.43989
C          1.58323       -0.68635       -2.41915
C          0.40043       -1.32664       -3.18147
C         -0.68020       -1.99555       -2.30690
O         -0.49955       -2.42576       -1.17364
O         -1.82721       -2.18954       -3.02400
C         -2.84949       -2.90816       -2.32625
C         -4.06141       -3.00247       -3.23390
O          0.03152       -0.65844       -4.38623
C         -0.43396        0.68426       -4.33552
C         -1.84542        0.85045       -3.77365
O         -1.82865        0.75440       -2.34843
C         -3.12738        0.95485       -1.79395
C         -3.03900        0.79002       -0.29018
H         -0.10896       -0.29346       -0.01528
H          0.98992        0.91166        0.63966
H          1.57445       -0.73450        0.35405
H          0.62835        1.20124       -1.81974
H          2.29257        1.00999       -1.33975
H          2.28639       -0.31693       -3.17813
H          2.11273       -1.47900       -1.87375
H          0.86249       -2.23371       -3.60262
H         -2.49189       -3.91517       -2.08260
H         -3.11801       -2.37791       -1.40565
H         -3.80611       -3.51597       -4.16718
H         -4.87515       -3.54416       -2.74347
H         -4.41751       -2.00392       -3.50845
H          0.29337        1.32703       -3.83766
H         -0.46188        1.01513       -5.38025
H         -2.22394        1.84062       -4.05176
H         -2.51180        0.08558       -4.18596
H         -3.47972        1.96318       -2.03814
H         -3.82716        0.22088       -2.20813
H         -2.32360        1.50164        0.13520
H         -4.01532        0.94732        0.17658
H         -2.68300       -0.21266       -0.03194

--Link1--
%chk=JID_5433.chk
%mem=8GB
%nprocshared=4
# B3LYP/6-311++G(d,p) empiricaldispersion=gd3bj scf=xqc pop=npa geom=check

CID_83037429_JID_5433_Energie_neutraal

0 1

--Link1--
%chk=JID_5433.chk
%mem=8GB
%nprocshared=4
# B3LYP/6-311++G(d,p) empiricaldispersion=gd3bj scf=xqc pop=npa geom=check

CID_83037429_JID_5433_Energie_kation

1 2

--Link1--
%chk=JID_5433.chk
%mem=8GB
%nprocshared=4
# B3LYP/6-311++G(d,p) empiricaldispersion=gd3bj scf=xqc pop=npa geom=check

CID_83037429_JID_5433_Energie_anion

-1 2
