%chk=JID_6192.chk
%mem=8GB
%nprocshared=4
# opt freq B3LYP/6-31G(d) empiricaldispersion=gd3bj scf=xqc

CID_82286584_JID_6192_neutraal

0 1
C          1.04070       -0.02885        0.08667
C          0.53779       -0.17570        1.53614
C          0.77419        1.15855        2.27875
C         -1.00572       -0.44347        1.54531
C         -1.49793       -1.59772        0.69674
C         -2.08767       -1.35525       -0.55377
C         -2.52978       -2.41583       -1.34389
C         -2.36683       -3.73245       -0.90445
C         -1.80364       -3.98458        0.34324
C         -1.36936       -2.92190        1.13927
O         -2.74128       -4.82438       -1.64580
C         -2.95624       -4.46827       -3.01585
C         -3.79621       -3.20570       -3.11458
O         -3.10225       -2.08897       -2.54748
N          1.21311       -1.27055        2.26918
C          2.66491       -1.30175        2.18848
H          0.42588        0.68829       -0.46967
H          1.01342       -0.98214       -0.45262
H          2.07152        0.34142        0.04959
H          0.22265        1.97628        1.79995
H          0.43760        1.10120        3.32052
H          1.83100        1.44586        2.28295
H         -1.35143       -0.60423        2.57681
H         -1.52882        0.46654        1.21819
H         -2.20615       -0.33882       -0.92004
H         -1.68340       -5.00681        0.68963
H         -0.91103       -3.13453        2.10255
H         -3.47141       -5.30442       -3.49883
H         -1.98058       -4.34153       -3.50158
H         -4.00185       -2.96956       -4.16333
H         -4.75569       -3.31992       -2.59513
H          0.93036       -1.24859        3.24850
H          3.12481       -0.38584        2.56913
H          3.03627       -2.13045        2.80051
H          3.01316       -1.48813        1.16848

--Link1--
%chk=JID_6192.chk
%mem=8GB
%nprocshared=4
# B3LYP/6-311++G(d,p) empiricaldispersion=gd3bj scf=xqc pop=npa geom=check

CID_82286584_JID_6192_Energie_neutraal

0 1

--Link1--
%chk=JID_6192.chk
%mem=8GB
%nprocshared=4
# B3LYP/6-311++G(d,p) empiricaldispersion=gd3bj scf=xqc pop=npa geom=check

CID_82286584_JID_6192_Energie_kation

1 2

--Link1--
%chk=JID_6192.chk
%mem=8GB
%nprocshared=4
# B3LYP/6-311++G(d,p) empiricaldispersion=gd3bj scf=xqc pop=npa geom=check

CID_82286584_JID_6192_Energie_anion

-1 2
