%chk=JID_2973.chk
%mem=8GB
%nprocshared=4
# opt freq B3LYP/6-31G(d) empiricaldispersion=gd3bj scf=xqc

CID_143994146_JID_2973_neutraal

0 1
C          0.90957        0.02547        0.03425
C         -0.19059       -0.98319        0.13172
C         -0.96653       -1.25056        1.19860
C         -1.97923       -2.36423        1.17357
C         -0.88244       -0.54686        2.46970
C         -1.22411        0.73511        2.74944
C         -1.02332        1.20228        4.13442
C          0.18645        1.19581        4.72022
C         -2.24813        1.70569        4.84792
C         -1.80446        1.63446        1.73873
C         -2.97059        1.37106        1.12529
C         -1.04519        2.90567        1.47232
H          1.17259        0.47343        0.99566
H          0.62441        0.82305       -0.65825
H          1.81178       -0.45667       -0.35603
H         -0.33749       -1.56821       -0.77468
H         -1.73728       -3.12145        1.92747
H         -2.98419       -1.98077        1.37913
H         -2.01284       -2.86730        0.20107
H         -0.51990       -1.18105        3.27945
H          0.32501        1.54909        5.73686
H          1.07138        0.84864        4.19491
H         -2.64329        2.60569        4.36554
H         -3.03152        0.93993        4.85329
H         -2.03365        1.96058        5.89164
H         -3.39286        2.05317        0.39515
H         -3.53494        0.46964        1.33973
H         -1.03769        3.55016        2.35762
H         -0.00889        2.69039        1.19323
H         -1.49016        3.48006        0.65231

--Link1--
%chk=JID_2973.chk
%mem=8GB
%nprocshared=4
# B3LYP/6-311++G(d,p) empiricaldispersion=gd3bj scf=xqc pop=npa geom=check

CID_143994146_JID_2973_Energie_neutraal

0 1

--Link1--
%chk=JID_2973.chk
%mem=8GB
%nprocshared=4
# B3LYP/6-311++G(d,p) empiricaldispersion=gd3bj scf=xqc pop=npa geom=check

CID_143994146_JID_2973_Energie_kation

1 2

--Link1--
%chk=JID_2973.chk
%mem=8GB
%nprocshared=4
# B3LYP/6-311++G(d,p) empiricaldispersion=gd3bj scf=xqc pop=npa geom=check

CID_143994146_JID_2973_Energie_anion

-1 2
