%chk=JID_9834.chk
%mem=8GB
%nprocshared=4
# opt freq B3LYP/6-31G(d) empiricaldispersion=gd3bj scf=xqc

CID_55002291_JID_9834_neutraal

0 1
C          0.95923        0.05951       -0.06926
C          1.62030        1.05090       -1.01174
N          1.51557        0.61966       -2.40793
C          0.32396        1.04205       -3.15357
C          0.44668        2.41235       -3.82000
O         -0.46459        2.92751       -4.45921
O          1.65971        2.99780       -3.59213
C          1.84791        4.29143       -4.18352
C          2.34806        4.14833       -5.60806
C          2.45343       -0.16027       -3.08421
O          2.28213       -0.58119       -4.22504
C          3.71166       -0.50989       -2.39524
C          3.82630       -1.82206       -1.91995
C          4.98784       -2.21735       -1.26877
C          6.03793       -1.31217       -1.12111
C          5.94171        0.00264       -1.61717
C          4.74708        0.43652       -2.23060
N          4.68674        1.70382       -2.84134
C          7.13295        0.91300       -1.48083
H         -0.10456       -0.05695       -0.29988
H          1.04716        0.40330        0.96596
H          1.42442       -0.92841       -0.14157
H          1.15067        2.03618       -0.91453
H          2.66578        1.17119       -0.72193
H          0.10472        0.31681       -3.94387
H         -0.52462        1.07024       -2.46238
H          0.93083        4.88983       -4.13655
H          2.59974        4.81080       -3.58027
H          1.61399        3.62914       -6.23221
H          2.54924        5.12909       -6.04815
H          3.26681        3.55333       -5.63443
H          3.01512       -2.53017       -2.06917
H          5.08719       -3.23408       -0.89741
H          6.95201       -1.64746       -0.63407
H          5.25787        2.41921       -2.40807
H          3.74571        2.02936       -3.06009
H          7.46918        1.25052       -2.46645
H          6.87837        1.77976       -0.86256
H          7.97713        0.40435       -1.00300

--Link1--
%chk=JID_9834.chk
%mem=8GB
%nprocshared=4
# B3LYP/6-311++G(d,p) empiricaldispersion=gd3bj scf=xqc pop=npa geom=check

CID_55002291_JID_9834_Energie_neutraal

0 1

--Link1--
%chk=JID_9834.chk
%mem=8GB
%nprocshared=4
# B3LYP/6-311++G(d,p) empiricaldispersion=gd3bj scf=xqc pop=npa geom=check

CID_55002291_JID_9834_Energie_kation

1 2

--Link1--
%chk=JID_9834.chk
%mem=8GB
%nprocshared=4
# B3LYP/6-311++G(d,p) empiricaldispersion=gd3bj scf=xqc pop=npa geom=check

CID_55002291_JID_9834_Energie_anion

-1 2
