%chk=JID_8625.chk
%mem=8GB
%nprocshared=4
# opt freq B3LYP/6-31G(d) empiricaldispersion=gd3bj scf=xqc

CID_87690290_JID_8625_neutraal

0 1
C          1.04866       -0.00066        0.08736
C          0.28637        0.70813       -1.03493
C          1.23354        1.01915       -2.19345
C         -1.07443        0.02523       -1.38470
C         -1.76589        0.60344       -2.62796
C         -1.41369       -0.13171       -3.91446
C         -1.70757       -1.61991       -3.79541
C         -0.93721       -2.31394       -2.65750
C         -1.16744       -1.51955       -1.34463
C          0.56248       -2.73386       -2.93142
C          1.00796       -3.69112       -1.80678
C          0.75608       -3.35569       -4.35127
C          0.87668       -2.30380       -5.42947
O          1.48769       -1.24841       -5.28693
S          2.18663       -4.40274       -4.64941
O          2.15646       -5.51520       -3.71882
O          2.21644       -4.69243       -6.07367
C          3.62024       -3.40728       -4.28249
H          1.48544       -0.94302       -0.25613
H          0.39322       -0.20628        0.93995
H          1.87032        0.62699        0.45013
H          0.01333        1.69441       -0.62913
H          1.58895        0.12245       -2.69704
H          0.76477        1.67225       -2.93484
H          2.11854        1.55244       -1.82677
H         -1.71219        0.33904       -0.54120
H         -2.85240        0.52805       -2.48248
H         -1.55692        1.67426       -2.73140
H         -0.36715        0.03196       -4.17401
H         -2.00682        0.28641       -4.73634
H         -1.56041       -2.11723       -4.75660
H         -2.78225       -1.73313       -3.59173
H         -1.45927       -3.27373       -2.51627
H         -0.59842       -1.92250       -0.50695
H         -2.21077       -1.73702       -1.06338
H          1.18983       -1.84710       -2.84931
H          0.46223       -4.63918       -1.85752
H          2.07942       -3.89728       -1.84795
H          0.84764       -3.27574       -0.81064
H         -0.10854       -3.98735       -4.58891
H          0.43845       -2.57126       -6.40772
H          3.70813       -2.61189       -5.02330
H          3.53939       -2.99256       -3.27873
H          4.49769       -4.05550       -4.34277

--Link1--
%chk=JID_8625.chk
%mem=8GB
%nprocshared=4
# B3LYP/6-311++G(d,p) empiricaldispersion=gd3bj scf=xqc pop=npa geom=check

CID_87690290_JID_8625_Energie_neutraal

0 1

--Link1--
%chk=JID_8625.chk
%mem=8GB
%nprocshared=4
# B3LYP/6-311++G(d,p) empiricaldispersion=gd3bj scf=xqc pop=npa geom=check

CID_87690290_JID_8625_Energie_kation

1 2

--Link1--
%chk=JID_8625.chk
%mem=8GB
%nprocshared=4
# B3LYP/6-311++G(d,p) empiricaldispersion=gd3bj scf=xqc pop=npa geom=check

CID_87690290_JID_8625_Energie_anion

-1 2
