%chk=JID_10532.chk
%mem=8GB
%nprocshared=4
# opt freq B3LYP/6-31G(d) empiricaldispersion=gd3bj scf=xqc

CID_62850712_JID_10532_neutraal

0 1
C          2.15100       -0.75300       -0.01100
C          0.89279       -1.06241        0.35966
C         -0.14883       -0.11499        0.16496
N         -1.43429       -0.13419        0.44854
N         -1.96552        1.08239        0.07948
C         -0.99046        1.81052       -0.41782
N          0.19043        1.10720       -0.40540
C          1.49122        1.43261       -0.79494
C          2.47274        0.53220       -0.61384
S         -1.10382        3.48766       -0.83468
C         -1.59366        4.15798        0.79095
C         -0.53537        3.92191        1.84459
C         -0.63254        2.81606        2.70704
C          0.39473        2.52778        3.61015
C          1.50988        3.36792        3.68614
C          1.60472        4.48030        2.84893
C          0.59174        4.75212        1.92789
C          0.32142        1.32488        4.48246
N         -0.25964        0.22449        4.12498
N          0.87841        1.34483        5.72669
H          2.96119       -1.46092        0.13906
H          0.65193       -2.01567        0.81729
H          1.66221        2.40996       -1.22752
H          3.50039        0.73720       -0.89532
H         -1.76436        5.23490        0.68154
H         -2.55181        3.72332        1.09810
H         -1.50959        2.17214        2.65784
H          2.32090        3.14533        4.37515
H          2.47863        5.12518        2.90164
H          0.69332        5.60878        1.26395
H         -0.62626        0.27713        3.16724
H          0.77419        2.21377        6.23668
H          0.56244        0.54305        6.26511

--Link1--
%chk=JID_10532.chk
%mem=8GB
%nprocshared=4
# B3LYP/6-311++G(d,p) empiricaldispersion=gd3bj scf=xqc pop=npa geom=check

CID_62850712_JID_10532_Energie_neutraal

0 1

--Link1--
%chk=JID_10532.chk
%mem=8GB
%nprocshared=4
# B3LYP/6-311++G(d,p) empiricaldispersion=gd3bj scf=xqc pop=npa geom=check

CID_62850712_JID_10532_Energie_kation

1 2

--Link1--
%chk=JID_10532.chk
%mem=8GB
%nprocshared=4
# B3LYP/6-311++G(d,p) empiricaldispersion=gd3bj scf=xqc pop=npa geom=check

CID_62850712_JID_10532_Energie_anion

-1 2
