%chk=JID_3057.chk
%mem=8GB
%nprocshared=4
# opt freq B3LYP/6-31G(d) empiricaldispersion=gd3bj scf=xqc

CID_61599336_JID_3057_neutraal

0 1
C          1.02716       -0.08510        0.04494
C          1.09067       -1.55919        0.38614
S          1.10104       -1.88265        2.15080
O          0.68048       -0.69511        2.86275
O          0.43043       -3.14931        2.35528
N          2.74784       -2.11835        2.46251
C          3.63316       -0.94212        2.42669
C          3.14169       -3.17563        3.43566
C          3.09761       -2.73946        4.90150
C          1.69565       -2.70763        5.50468
C          4.00082       -3.67452        5.66967
O          5.20060       -3.51581        5.83403
O          3.39960       -4.79164        6.11388
H          0.10199        0.36370        0.42105
H          1.04903        0.05282       -1.04051
H          1.86453        0.47019        0.47487
H          0.20620       -2.06484       -0.01637
H          1.96892       -2.04093       -0.05377
H          3.29221       -0.16944        3.12105
H          4.65614       -1.21821        2.70231
H          3.67899       -0.53474        1.41433
H          2.54038       -4.07866        3.27728
H          4.16141       -3.48341        3.16346
H          3.52858       -1.73874        5.02726
H          1.13668       -3.62214        5.27944
H          1.74201       -2.60872        6.59516
H          1.12234       -1.85727        5.12974
H          4.11013       -5.29471        6.56488

--Link1--
%chk=JID_3057.chk
%mem=8GB
%nprocshared=4
# B3LYP/6-311++G(d,p) empiricaldispersion=gd3bj scf=xqc pop=npa geom=check

CID_61599336_JID_3057_Energie_neutraal

0 1

--Link1--
%chk=JID_3057.chk
%mem=8GB
%nprocshared=4
# B3LYP/6-311++G(d,p) empiricaldispersion=gd3bj scf=xqc pop=npa geom=check

CID_61599336_JID_3057_Energie_kation

1 2

--Link1--
%chk=JID_3057.chk
%mem=8GB
%nprocshared=4
# B3LYP/6-311++G(d,p) empiricaldispersion=gd3bj scf=xqc pop=npa geom=check

CID_61599336_JID_3057_Energie_anion

-1 2
