%chk=JID_7648.chk
%mem=8GB
%nprocshared=4
# opt freq B3LYP/6-31G(d) empiricaldispersion=gd3bj scf=xqc

CID_151339131_JID_7648_neutraal

0 1
C          2.49200        0.00400       -0.01400
C          1.09631       -0.17263        0.51357
C          0.66152       -1.42057        0.99190
C         -0.65471       -1.55946        1.44437
C         -1.52046       -0.46491        1.48120
C         -1.08823        0.79079        1.04392
C          0.22147        0.92620        0.56021
C         -2.01998        1.97757        1.07131
C         -2.53014        2.39809       -0.31379
C         -3.43290        1.37036       -1.02587
C         -4.72954        1.10477       -0.25927
C         -3.76412        1.86527       -2.43691
N          1.48255       -2.55088        0.94533
C          2.30802       -2.83712        1.89525
N          2.65567       -2.29504        3.12201
C          3.60345       -3.00976        3.96914
C          1.83695       -1.30610        3.80581
H          3.21477       -0.04045        0.80659
H          2.72827       -0.77140       -0.74996
H          2.60901        0.97044       -0.51583
H         -1.00217       -2.53551        1.77176
H         -2.53550       -0.60609        1.84349
H          0.56278        1.89743        0.20691
H         -2.85897        1.78742        1.75040
H         -1.47736        2.82192        1.51703
H         -3.08356        3.33966       -0.20054
H         -1.67113        2.62527       -0.95856
H         -2.89227        0.42215       -1.12962
H         -5.28624        2.03232       -0.08788
H         -5.37771        0.42160       -0.81891
H         -4.53412        0.64099        0.71164
H         -2.84983        2.02092       -3.01932
H         -4.37825        1.13317       -2.97211
H         -4.31388        2.81226       -2.40785
H          2.90840       -3.74329        1.69542
H          4.39520       -3.47517        3.37197
H          4.09459       -2.33036        4.67401
H          3.08901       -3.79193        4.53655
H          1.81610       -0.36353        3.25380
H          0.81833       -1.67823        3.95064
H          2.23538       -1.06991        4.79920

--Link1--
%chk=JID_7648.chk
%mem=8GB
%nprocshared=4
# B3LYP/6-311++G(d,p) empiricaldispersion=gd3bj scf=xqc pop=npa geom=check

CID_151339131_JID_7648_Energie_neutraal

0 1

--Link1--
%chk=JID_7648.chk
%mem=8GB
%nprocshared=4
# B3LYP/6-311++G(d,p) empiricaldispersion=gd3bj scf=xqc pop=npa geom=check

CID_151339131_JID_7648_Energie_kation

1 2

--Link1--
%chk=JID_7648.chk
%mem=8GB
%nprocshared=4
# B3LYP/6-311++G(d,p) empiricaldispersion=gd3bj scf=xqc pop=npa geom=check

CID_151339131_JID_7648_Energie_anion

-1 2
