%chk=JID_6800.chk
%mem=8GB
%nprocshared=4
# opt freq B3LYP/6-31G(d) empiricaldispersion=gd3bj scf=xqc

CID_154390863_JID_6800_neutraal

0 1
C          0.98768        0.04069        0.09051
C          0.61419        1.51382        0.15638
C          1.11437        2.32989       -1.03910
C          0.68421        1.82452       -2.42471
C         -0.83767        1.83441       -2.67614
C         -1.40142        3.23954       -2.91881
C         -1.09734        3.78618       -4.32150
C         -1.71912        5.18579       -4.47339
C         -1.47622        5.76787       -5.86107
C         -1.97751        4.82952       -6.95014
C         -1.36119        3.43859       -6.81810
C         -1.61220        2.82558       -5.42376
C         -1.04926        1.37404       -5.26456
C         -1.26708        0.88371       -3.80757
C          0.43545        1.26562       -5.66637
C         -1.83067        0.39968       -6.18162
H          0.46542       -0.46907       -0.72450
H          0.70863       -0.45897        1.02382
H          2.06537       -0.08615       -0.05237
H         -0.47160        1.61135        0.26051
H          1.04717        1.94269        1.06846
H          0.79962        3.37164       -0.90973
H          2.21172        2.34182       -1.01177
H          1.19408        2.45338       -3.15962
H          1.07865        0.81207       -2.56855
H         -1.31915        1.44683       -1.77024
H         -2.49113        3.19997       -2.78335
H         -1.03080        3.93583       -2.15803
H         -0.01187        3.90292       -4.42687
H         -1.29847        5.86403       -3.72121
H         -2.79969        5.13714       -4.28714
H         -0.40364        5.95137       -5.99914
H         -1.98004        6.73707       -5.94832
H         -1.73606        5.24625       -7.93459
H         -3.07032        4.75232       -6.89546
H         -0.28480        3.51573       -7.01152
H         -1.78373        2.80129       -7.60148
H         -2.70442        2.75875       -5.30070
H         -0.79450       -0.09690       -3.66274
H         -2.34434        0.70565       -3.67129
H          0.85791        0.30217       -5.35911
H          0.56100        1.33456       -6.75303
H          1.05028        2.05482       -5.23148
H         -2.90892        0.45633       -5.99468
H         -1.66536        0.61077       -7.24281
H         -1.51849       -0.63686       -6.00717

--Link1--
%chk=JID_6800.chk
%mem=8GB
%nprocshared=4
# B3LYP/6-311++G(d,p) empiricaldispersion=gd3bj scf=xqc pop=npa geom=check

CID_154390863_JID_6800_Energie_neutraal

0 1

--Link1--
%chk=JID_6800.chk
%mem=8GB
%nprocshared=4
# B3LYP/6-311++G(d,p) empiricaldispersion=gd3bj scf=xqc pop=npa geom=check

CID_154390863_JID_6800_Energie_kation

1 2

--Link1--
%chk=JID_6800.chk
%mem=8GB
%nprocshared=4
# B3LYP/6-311++G(d,p) empiricaldispersion=gd3bj scf=xqc pop=npa geom=check

CID_154390863_JID_6800_Energie_anion

-1 2
