%chk=JID_3069.chk
%mem=8GB
%nprocshared=4
# opt freq B3LYP/6-31G(d) empiricaldispersion=gd3bj scf=xqc

CID_18408238_JID_3069_neutraal

0 1
C          1.01722       -0.07831       -0.05976
C          0.47992       -1.49349       -0.26255
C          1.11746       -2.57019        0.61177
C          0.80647       -2.44376        2.07178
O         -0.07166       -3.04647        2.66748
O          1.61573       -1.58103        2.71070
O         -0.96493       -1.59300       -0.29080
C         -1.71895       -1.04274        0.70089
O         -1.30194       -0.37171        1.63221
C         -3.17707       -1.32704        0.45445
C         -3.85522       -0.18983       -0.30172
C         -3.24884        0.10748       -1.66992
O         -3.17221       -1.06911       -2.45994
H          0.90019        0.27901        0.96590
H          0.48753        0.62744       -0.70840
H          2.08498       -0.03619       -0.29878
H          0.76127       -1.75329       -1.29186
H          0.75606       -3.55858        0.30089
H          2.20644       -2.58493        0.48591
H          1.24242       -1.53659        3.61685
H         -3.28210       -2.28196       -0.07324
H         -3.65744       -1.47100        1.42942
H         -4.90853       -0.46454       -0.43695
H         -3.83495        0.72612        0.30048
H         -3.87738        0.82904       -2.20148
H         -2.24863        0.54481       -1.58577
H         -2.38951       -1.56970       -2.16666

--Link1--
%chk=JID_3069.chk
%mem=8GB
%nprocshared=4
# B3LYP/6-311++G(d,p) empiricaldispersion=gd3bj scf=xqc pop=npa geom=check

CID_18408238_JID_3069_Energie_neutraal

0 1

--Link1--
%chk=JID_3069.chk
%mem=8GB
%nprocshared=4
# B3LYP/6-311++G(d,p) empiricaldispersion=gd3bj scf=xqc pop=npa geom=check

CID_18408238_JID_3069_Energie_kation

1 2

--Link1--
%chk=JID_3069.chk
%mem=8GB
%nprocshared=4
# B3LYP/6-311++G(d,p) empiricaldispersion=gd3bj scf=xqc pop=npa geom=check

CID_18408238_JID_3069_Energie_anion

-1 2
