%chk=JID_7083.chk
%mem=8GB
%nprocshared=4
# opt freq B3LYP/6-31G(d) empiricaldispersion=gd3bj scf=xqc

CID_64483318_JID_7083_neutraal

0 1
C          1.02723       -0.09495       -0.01559
C          0.51920       -1.47288        0.38873
C          1.19884       -2.01732        1.65543
C          0.88792       -1.19185        2.88724
N          1.78130       -0.44283        3.50498
C          1.20496        0.17535        4.59660
C         -0.12882       -0.09832        4.79968
S         -0.69075       -1.16800        3.58711
N          0.79918       -3.40410        1.88212
C          1.52762       -4.47979        2.29355
O          0.91438       -5.53726        2.43089
C          3.03164       -4.34855        2.49205
C          3.42664       -3.45741        3.67244
N          4.65253       -4.03091        4.24697
C          5.12553       -5.04758        3.30942
C          3.83757       -5.63715        2.73558
C          3.22646       -6.64230        3.71849
H          0.78398        0.66021        0.73794
H          0.56419        0.21388       -0.95828
H          2.11238       -0.10352       -0.15917
H         -0.57029       -1.43492        0.51091
H          0.70810       -2.16519       -0.44205
H          2.28076       -1.99492        1.49257
H          1.80975        0.82368        5.21924
H         -0.77986        0.26735        5.58053
H         -0.19259       -3.60967        1.84653
H          3.43153       -3.90607        1.56774
H          3.63415       -2.43835        3.33298
H          2.64840       -3.41089        4.44105
H          5.35814       -3.31229        4.39963
H          5.75400       -5.79011        3.80998
H          5.71915       -4.57732        2.51570
H          4.04042       -6.15222        1.78945
H          2.42673       -7.21893        3.24498
H          3.97959       -7.36789        4.04547
H          2.81614       -6.15776        4.61030

--Link1--
%chk=JID_7083.chk
%mem=8GB
%nprocshared=4
# B3LYP/6-311++G(d,p) empiricaldispersion=gd3bj scf=xqc pop=npa geom=check

CID_64483318_JID_7083_Energie_neutraal

0 1

--Link1--
%chk=JID_7083.chk
%mem=8GB
%nprocshared=4
# B3LYP/6-311++G(d,p) empiricaldispersion=gd3bj scf=xqc pop=npa geom=check

CID_64483318_JID_7083_Energie_kation

1 2

--Link1--
%chk=JID_7083.chk
%mem=8GB
%nprocshared=4
# B3LYP/6-311++G(d,p) empiricaldispersion=gd3bj scf=xqc pop=npa geom=check

CID_64483318_JID_7083_Energie_anion

-1 2
