%chk=JID_2291.chk
%mem=8GB
%nprocshared=4
# opt freq B3LYP/6-31G(d) empiricaldispersion=gd3bj scf=xqc

CID_123182953_JID_2291_neutraal

0 1
C          1.03278        0.03361        0.08830
N          0.43851        0.77171       -1.00921
C          0.18794        0.24237       -2.26587
O          0.30541        0.93834       -3.28003
C         -0.25799       -1.20716       -2.33888
C          0.87781       -2.19905       -2.40695
C          0.82683       -3.38094       -1.66066
C          1.87818       -4.28001       -1.76018
N          2.95770       -4.08802       -2.54549
C          2.97996       -2.95450       -3.27732
C          1.97639       -1.99799       -3.24880
O          1.00429        2.07855       -1.07491
H          0.46788       -0.88059        0.28124
H          1.02718        0.65709        0.98670
H          2.06219       -0.22771       -0.17408
H         -0.91186       -1.41527       -1.48357
H         -0.88325       -1.32532       -3.23257
H         -0.01304       -3.60906       -1.01234
H          1.87713       -5.20797       -1.19523
H          3.85257       -2.82978       -3.91247
H          2.06083       -1.11672       -3.87854
H          0.97133        2.27294       -2.03767

--Link1--
%chk=JID_2291.chk
%mem=8GB
%nprocshared=4
# B3LYP/6-311++G(d,p) empiricaldispersion=gd3bj scf=xqc pop=npa geom=check

CID_123182953_JID_2291_Energie_neutraal

0 1

--Link1--
%chk=JID_2291.chk
%mem=8GB
%nprocshared=4
# B3LYP/6-311++G(d,p) empiricaldispersion=gd3bj scf=xqc pop=npa geom=check

CID_123182953_JID_2291_Energie_kation

1 2

--Link1--
%chk=JID_2291.chk
%mem=8GB
%nprocshared=4
# B3LYP/6-311++G(d,p) empiricaldispersion=gd3bj scf=xqc pop=npa geom=check

CID_123182953_JID_2291_Energie_anion

-1 2
