%chk=JID_5849.chk
%mem=8GB
%nprocshared=4
# opt freq B3LYP/6-31G(d) empiricaldispersion=gd3bj scf=xqc

CID_20116362_JID_5849_neutraal

0 1
C          0.95511       -0.07413       -0.04990
O          0.17343        1.10264       -0.21597
C          0.79232        2.30111        0.01914
C         -0.04377        3.41483       -0.12923
C          0.48788        4.69547        0.09165
C          1.82413        4.88580        0.45158
C          2.65092        3.75427        0.59260
C          2.12787        2.47129        0.37539
N          2.20879        6.20429        0.63720
C          1.17666        6.98283        0.42607
S         -0.28628        6.23200       -0.01068
N          1.11481        8.34399        0.49916
C          2.13361        9.17183        0.82940
O          1.98193       10.39048        0.82411
N          3.31435        8.62805        1.18340
H          0.31197       -0.93462       -0.25805
H          1.31392       -0.16779        0.98041
H          1.78589       -0.09895       -0.76271
H         -1.08558        3.28566       -0.40828
H          3.69243        3.88352        0.87096
H          2.80010        1.62742        0.49482
H          0.24004        8.79184        0.27320
H          3.47720        7.63609        1.04349
H          4.09635        9.24147        1.35559

--Link1--
%chk=JID_5849.chk
%mem=8GB
%nprocshared=4
# B3LYP/6-311++G(d,p) empiricaldispersion=gd3bj scf=xqc pop=npa geom=check

CID_20116362_JID_5849_Energie_neutraal

0 1

--Link1--
%chk=JID_5849.chk
%mem=8GB
%nprocshared=4
# B3LYP/6-311++G(d,p) empiricaldispersion=gd3bj scf=xqc pop=npa geom=check

CID_20116362_JID_5849_Energie_kation

1 2

--Link1--
%chk=JID_5849.chk
%mem=8GB
%nprocshared=4
# B3LYP/6-311++G(d,p) empiricaldispersion=gd3bj scf=xqc pop=npa geom=check

CID_20116362_JID_5849_Energie_anion

-1 2
