%chk=JID_5244.chk
%mem=8GB
%nprocshared=4
# opt freq B3LYP/6-31G(d) empiricaldispersion=gd3bj scf=xqc

CID_130527876_JID_5244_neutraal

0 1
C         -1.43100        0.32400       -0.23100
C         -0.92930       -1.06141        0.15067
C          0.48232       -1.31849       -0.38309
C          1.52946       -0.23520        0.05242
C          0.95417        1.13550       -0.37594
C         -0.44344        1.40619        0.18336
C          2.85115       -0.58975       -0.68744
N          3.84473        0.47947       -0.76350
C          1.77815       -0.39711        1.58080
O          1.48736       -1.46561        2.13124
C          2.34856        0.66197        2.40465
C          3.03814        1.83150        2.13558
C          3.34881        2.46478        3.36552
C          2.86560        1.66179        4.36925
N          2.28709        0.57036        3.78389
H         -2.40376        0.50905        0.23823
H         -1.58723        0.36901       -1.31593
H         -0.94928       -1.16922        1.24094
H         -1.61261       -1.81921       -0.24990
H          0.42470       -1.34621       -1.48021
H          0.80480       -2.32120       -0.07474
H          0.89767        1.17041       -1.47301
H          1.60028        1.96772       -0.09321
H         -0.79820        2.37768       -0.17991
H         -0.40503        1.47372        1.27677
H          3.32146       -1.45433       -0.20242
H          2.63460       -0.89561       -1.71838
H          4.70707        0.10790       -1.16408
H          3.52843        1.19914       -1.41340
H          3.32183        2.20408        1.16172
H          3.88265        3.39680        3.49911
H          2.89835        1.76286        5.44574
H          1.86553       -0.21333        4.26819

--Link1--
%chk=JID_5244.chk
%mem=8GB
%nprocshared=4
# B3LYP/6-311++G(d,p) empiricaldispersion=gd3bj scf=xqc pop=npa geom=check

CID_130527876_JID_5244_Energie_neutraal

0 1

--Link1--
%chk=JID_5244.chk
%mem=8GB
%nprocshared=4
# B3LYP/6-311++G(d,p) empiricaldispersion=gd3bj scf=xqc pop=npa geom=check

CID_130527876_JID_5244_Energie_kation

1 2

--Link1--
%chk=JID_5244.chk
%mem=8GB
%nprocshared=4
# B3LYP/6-311++G(d,p) empiricaldispersion=gd3bj scf=xqc pop=npa geom=check

CID_130527876_JID_5244_Energie_anion

-1 2
