%chk=JID_7619.chk
%mem=8GB
%nprocshared=4
# opt freq B3LYP/6-31G(d) empiricaldispersion=gd3bj scf=xqc

CID_112717798_JID_7619_neutraal

0 1
C          0.90861       -0.03922        0.01048
C          0.25157       -1.30427       -0.55674
C          0.75627       -2.58585        0.15996
C          0.71263       -2.62927        1.71037
C         -0.69326       -2.54766        2.32855
N         -1.57954       -3.62548        1.90142
C          1.42993       -3.88956        2.23338
O          2.81510       -3.85461        1.89977
C         -1.26348       -1.23879       -0.72277
C         -2.05737       -0.24458       -0.12820
C         -3.44325       -0.21730       -0.31821
C         -4.05116       -1.18776       -1.12057
C         -3.28167       -2.17991       -1.73483
C         -1.89792       -2.19646       -1.53771
N         -5.50490       -1.16227       -1.32106
O         -6.14859       -0.26296       -0.76155
O         -6.00420       -2.04468       -2.03374
H          0.58761        0.17256        1.03527
H          0.66412        0.83574       -0.60245
H          1.99937       -0.14148        0.01613
H          0.63215       -1.37371       -1.58792
H          0.25107       -3.47171       -0.24424
H          1.80713       -2.69749       -0.14089
H          1.28759       -1.77022        2.07929
H         -0.60494       -2.59395        3.42076
H         -1.15521       -1.58201        2.11122
H         -2.46059       -3.55372        2.41148
H         -1.82684       -3.49136        0.92094
H          1.36814       -3.93774        3.32565
H          0.99489       -4.81099        1.83113
H          2.90934       -4.25446        1.01871
H         -1.61610        0.52672        0.49927
H         -4.02671        0.56596        0.16208
H         -3.73604       -2.93779       -2.36991
H         -1.30944       -2.96701       -2.03500

--Link1--
%chk=JID_7619.chk
%mem=8GB
%nprocshared=4
# B3LYP/6-311++G(d,p) empiricaldispersion=gd3bj scf=xqc pop=npa geom=check

CID_112717798_JID_7619_Energie_neutraal

0 1

--Link1--
%chk=JID_7619.chk
%mem=8GB
%nprocshared=4
# B3LYP/6-311++G(d,p) empiricaldispersion=gd3bj scf=xqc pop=npa geom=check

CID_112717798_JID_7619_Energie_kation

1 2

--Link1--
%chk=JID_7619.chk
%mem=8GB
%nprocshared=4
# B3LYP/6-311++G(d,p) empiricaldispersion=gd3bj scf=xqc pop=npa geom=check

CID_112717798_JID_7619_Energie_anion

-1 2
