%chk=JID_2783.chk
%mem=8GB
%nprocshared=4
# opt freq B3LYP/6-31G(d) empiricaldispersion=gd3bj scf=xqc

CID_149899088_JID_2783_neutraal

0 1
C          0.93565       -0.01539       -0.07498
O          0.03273       -0.00539       -1.16741
C          0.65273        0.02833       -2.43589
C         -0.21774       -0.70153       -3.41392
C         -0.80021       -0.12396       -4.48127
C         -0.62795        1.29955       -4.72641
C          0.16573        1.98512       -3.88362
N          0.85353        1.40678       -2.82187
C         -1.34615        1.95584       -5.84665
O         -2.06609        1.39378       -6.65469
O         -1.14919        3.28544       -5.91399
O          1.91829       -0.56852       -2.47992
H          0.35463        0.07475        0.84719
H          1.63137        0.82782       -0.12562
H          1.48484       -0.96107       -0.03586
H         -0.36007       -1.76001       -3.22737
H         -1.41966       -0.69814       -5.16338
H          0.31926        3.05847       -3.96279
H          0.83491        2.00034       -1.99834
H         -1.68733        3.55547       -6.68690
H          2.44280        0.17513       -2.81943

--Link1--
%chk=JID_2783.chk
%mem=8GB
%nprocshared=4
# B3LYP/6-311++G(d,p) empiricaldispersion=gd3bj scf=xqc pop=npa geom=check

CID_149899088_JID_2783_Energie_neutraal

0 1

--Link1--
%chk=JID_2783.chk
%mem=8GB
%nprocshared=4
# B3LYP/6-311++G(d,p) empiricaldispersion=gd3bj scf=xqc pop=npa geom=check

CID_149899088_JID_2783_Energie_kation

1 2

--Link1--
%chk=JID_2783.chk
%mem=8GB
%nprocshared=4
# B3LYP/6-311++G(d,p) empiricaldispersion=gd3bj scf=xqc pop=npa geom=check

CID_149899088_JID_2783_Energie_anion

-1 2
