%chk=JID_10220.chk
%mem=8GB
%nprocshared=4
# opt freq B3LYP/6-31G(d) empiricaldispersion=gd3bj scf=xqc

CID_9943419_JID_10220_neutraal

0 1
C          1.05145       -0.04625        0.07220
C          0.59740       -0.61445        1.37886
C         -0.22059        0.02989        2.22641
C         -0.68332       -0.51174        3.51280
C          0.12030       -1.33161        4.31547
C         -0.35137       -1.78410        5.55508
C         -1.61828       -1.41882        6.02838
C         -2.42576       -0.62893        5.20549
C         -1.95507       -0.14977        3.97864
O         -3.67720       -0.24233        5.61647
C         -4.64104       -1.23973        5.26930
N         -2.06895       -1.90582        7.25977
C         -1.26428       -2.66321        8.08897
C         -0.03264       -3.06117        7.73450
C          0.49581       -2.65210        6.41035
O          1.60714       -3.02342        6.05055
C         -1.83857       -3.02093        9.42837
O         -2.93850       -2.61891        9.78900
O         -1.01171       -3.82036       10.14618
C         -1.53121       -4.19548       11.42243
H          0.64076        0.95162       -0.11123
H          0.73787       -0.70041       -0.74703
H          2.14323        0.02568        0.05719
H          0.96608       -1.61110        1.61029
H         -0.59842        1.01671        1.96560
H          1.12219       -1.61141        3.99641
H         -2.59674        0.49714        3.38474
H         -4.49674       -1.62225        4.25229
H         -4.61444       -2.06335        5.98989
H         -5.63176       -0.77821        5.31925
H         -2.90049       -1.48872        7.67532
H          0.62493       -3.65802        8.35240
H         -1.68975       -3.31082       12.04704
H         -2.46121       -4.76105       11.30676
H         -0.79451       -4.83803       11.91245

--Link1--
%chk=JID_10220.chk
%mem=8GB
%nprocshared=4
# B3LYP/6-311++G(d,p) empiricaldispersion=gd3bj scf=xqc pop=npa geom=check

CID_9943419_JID_10220_Energie_neutraal

0 1

--Link1--
%chk=JID_10220.chk
%mem=8GB
%nprocshared=4
# B3LYP/6-311++G(d,p) empiricaldispersion=gd3bj scf=xqc pop=npa geom=check

CID_9943419_JID_10220_Energie_kation

1 2

--Link1--
%chk=JID_10220.chk
%mem=8GB
%nprocshared=4
# B3LYP/6-311++G(d,p) empiricaldispersion=gd3bj scf=xqc pop=npa geom=check

CID_9943419_JID_10220_Energie_anion

-1 2
