%chk=JID_5545.chk
%mem=8GB
%nprocshared=4
# opt freq B3LYP/6-31G(d) empiricaldispersion=gd3bj scf=xqc

CID_10750477_JID_5545_neutraal

0 1
C          3.57600        0.66900       -0.15800
C          2.33751        1.41648        0.31802
C          1.06006        0.76849       -0.23273
C         -0.17790        1.48393        0.35094
C         -1.45747        0.71185        0.14451
C         -2.69005        1.37671        0.10285
C         -3.87458        0.65177       -0.02668
C         -3.83711       -0.73941       -0.10038
C         -2.61427       -1.41039       -0.04409
C         -1.42034       -0.69177        0.07685
C         -0.13579       -1.39549        0.14341
C          1.01806       -0.72246       -0.00545
C          2.29398       -1.50056        0.00685
O          2.29896       -2.71862       -0.16863
C          3.57003       -0.76412        0.34903
H          4.47723        1.17982        0.19916
H          3.61279        0.67765       -1.25440
H          2.32063        1.43101        1.41556
H          2.39298        2.46038       -0.01353
H          1.05191        0.91445       -1.32326
H         -0.26090        2.47688       -0.10874
H         -0.05689        1.63537        1.43186
H         -2.73397        2.46074        0.17575
H         -4.82854        1.17162       -0.06322
H         -4.76088       -1.30383       -0.19809
H         -2.60281       -2.49634       -0.10012
H         -0.15339       -2.47386        0.27868
H          4.41196       -1.30389       -0.09861
H          3.69048       -0.78982        1.43799

--Link1--
%chk=JID_5545.chk
%mem=8GB
%nprocshared=4
# B3LYP/6-311++G(d,p) empiricaldispersion=gd3bj scf=xqc pop=npa geom=check

CID_10750477_JID_5545_Energie_neutraal

0 1

--Link1--
%chk=JID_5545.chk
%mem=8GB
%nprocshared=4
# B3LYP/6-311++G(d,p) empiricaldispersion=gd3bj scf=xqc pop=npa geom=check

CID_10750477_JID_5545_Energie_kation

1 2

--Link1--
%chk=JID_5545.chk
%mem=8GB
%nprocshared=4
# B3LYP/6-311++G(d,p) empiricaldispersion=gd3bj scf=xqc pop=npa geom=check

CID_10750477_JID_5545_Energie_anion

-1 2
