%chk=JID_6433.chk
%mem=8GB
%nprocshared=4
# opt freq B3LYP/6-31G(d) empiricaldispersion=gd3bj scf=xqc

CID_143730069_JID_6433_neutraal

0 1
C          1.07697        0.02568        0.05845
C          0.05400       -0.44635        1.08175
C          0.54951       -0.33089        2.52735
C          0.71396        1.10960        3.05745
C         -0.65491        1.78267        3.23342
C          1.46127        1.12866        4.40927
C          2.93334        0.66880        4.41074
N          3.82068        1.60384        3.71258
C          5.02784        1.89235        4.48202
C          4.10998        1.26917        2.30938
C          5.13644        0.18792        2.03291
C          4.77645       -1.16641        1.99559
C          5.72445       -2.14949        1.70473
C          7.04391       -1.79046        1.44002
C          7.41695       -0.44896        1.46756
C          6.47022        0.53372        1.76243
H          1.27076        1.09809        0.14784
H          0.70410       -0.15873       -0.95433
H          2.02305       -0.51267        0.16947
H         -0.88614        0.09654        0.94346
H         -0.16676       -1.50177        0.87979
H         -0.15327       -0.86980        3.17622
H          1.49666       -0.87300        2.59649
H          1.27159        1.71859        2.34145
H         -1.29311        1.21429        3.91849
H         -0.54109        2.79363        3.63977
H         -1.17941        1.87758        2.27809
H          1.42493        2.14578        4.82335
H          0.91167        0.49871        5.12196
H          3.21711        0.61882        5.47158
H          3.03385       -0.35851        4.05378
H          5.62488        0.99489        4.67819
H          5.65499        2.62879        3.96748
H          4.76484        2.33912        5.44784
H          3.19385        1.00382        1.77729
H          4.43989        2.19076        1.81014
H          3.74931       -1.46829        2.17840
H          5.42985       -3.19524        1.67767
H          7.77950       -2.55551        1.20702
H          8.44415       -0.16581        1.25373
H          6.77630        1.57759        1.77084

--Link1--
%chk=JID_6433.chk
%mem=8GB
%nprocshared=4
# B3LYP/6-311++G(d,p) empiricaldispersion=gd3bj scf=xqc pop=npa geom=check

CID_143730069_JID_6433_Energie_neutraal

0 1

--Link1--
%chk=JID_6433.chk
%mem=8GB
%nprocshared=4
# B3LYP/6-311++G(d,p) empiricaldispersion=gd3bj scf=xqc pop=npa geom=check

CID_143730069_JID_6433_Energie_kation

1 2

--Link1--
%chk=JID_6433.chk
%mem=8GB
%nprocshared=4
# B3LYP/6-311++G(d,p) empiricaldispersion=gd3bj scf=xqc pop=npa geom=check

CID_143730069_JID_6433_Energie_anion

-1 2
