%chk=JID_8301.chk
%mem=8GB
%nprocshared=4
# opt freq B3LYP/6-31G(d) empiricaldispersion=gd3bj scf=xqc

CID_106965768_JID_8301_neutraal

0 1
C          0.95284        0.06741        0.05685
C          0.72356        0.71441       -1.30084
N          1.24752       -0.09740       -2.40186
C          0.39216       -1.19184       -2.84452
C          2.59781        0.05523       -2.72097
O          3.29384        0.89800       -2.14077
C          3.25878       -0.82041       -3.81590
C          3.40821       -2.26749       -3.35563
N          2.53175       -0.70970       -5.08592
C          3.18413       -0.87365       -6.25239
N          2.87450       -0.39529       -7.43686
N          3.85110       -0.83156       -8.30872
C          4.68174       -1.55998       -7.59011
O          4.31631       -1.63595       -6.27200
C          5.93282       -2.27885       -8.00234
C          5.70847       -2.97174       -9.35120
N          7.06677       -1.33583       -8.03166
C          8.35572       -1.98134       -8.21558
H          0.44588       -0.90038        0.12423
H          0.56491        0.71005        0.85318
H          2.01877       -0.10052        0.24139
H         -0.34631        0.88331       -1.46694
H          1.20244        1.70018       -1.31462
H          0.67269       -1.58133       -3.82008
H          0.45179       -2.00013       -2.11007
H         -0.64121       -0.83869       -2.91291
H          4.26571       -0.39711       -3.94361
H          2.47465       -2.83230       -3.42219
H          4.14104       -2.79945       -3.97115
H          3.75407       -2.31346       -2.31731
H          1.88127        0.07213       -5.10936
H          6.13238       -3.05020       -7.24699
H          5.56854       -2.24500      -10.16014
H          6.55098       -3.61774       -9.61770
H          4.81308       -3.60380       -9.31995
H          6.91038       -0.64837       -8.77010
H          8.45570       -2.42721       -9.20936
H          9.14982       -1.23527       -8.11064
H          8.52929       -2.75054       -7.45628

--Link1--
%chk=JID_8301.chk
%mem=8GB
%nprocshared=4
# B3LYP/6-311++G(d,p) empiricaldispersion=gd3bj scf=xqc pop=npa geom=check

CID_106965768_JID_8301_Energie_neutraal

0 1

--Link1--
%chk=JID_8301.chk
%mem=8GB
%nprocshared=4
# B3LYP/6-311++G(d,p) empiricaldispersion=gd3bj scf=xqc pop=npa geom=check

CID_106965768_JID_8301_Energie_kation

1 2

--Link1--
%chk=JID_8301.chk
%mem=8GB
%nprocshared=4
# B3LYP/6-311++G(d,p) empiricaldispersion=gd3bj scf=xqc pop=npa geom=check

CID_106965768_JID_8301_Energie_anion

-1 2
