%chk=JID_10865.chk
%mem=8GB
%nprocshared=4
# opt freq B3LYP/6-31G(d) empiricaldispersion=gd3bj scf=xqc

CID_103783667_JID_10865_neutraal

0 1
C          2.54100        0.50500       -0.00100
C          1.25963        0.05307        0.57270
C         -0.04587        0.50525        0.51548
C         -0.74992       -0.44262        1.32520
N          0.07508       -1.37017        1.82502
O          1.32841       -1.05622        1.35157
C         -2.19168       -0.49246        1.67170
C         -0.57757        1.70509       -0.23381
C         -1.40293        1.23514       -1.43499
N         -1.36043        2.49657        0.71689
C         -1.47092        3.95691        0.52806
C         -2.35319        4.43454       -0.63391
C         -1.59289        4.89479       -1.87576
N         -0.52622        5.82059       -1.50915
C          0.47396        5.17109       -0.66856
C         -0.15119        4.73890        0.65697
C          0.02598        6.58576       -2.63219
C          1.11962        5.96650       -3.53540
C          0.66905        4.71694       -4.28938
C          1.58582        7.02220       -4.54746
H          2.39967        0.87755       -1.02026
H          2.96318        1.31245        0.60482
H          3.26918       -0.31118       -0.04079
H         -2.44786        0.31884        2.36005
H         -2.81702       -0.40335        0.77984
H         -2.45239       -1.43799        2.15944
H          0.28128        2.27809       -0.59437
H         -2.29063        0.67144       -1.13115
H         -1.74730        2.06044       -2.05642
H         -0.80592        0.57623       -2.07674
H         -0.95159        2.36303        1.64510
H         -2.04439        4.23881        1.42416
H         -3.09340        3.67200       -0.90415
H         -2.94360        5.28940       -0.27259
H         -1.19990        4.03612       -2.41917
H         -2.31354        5.38690       -2.54056
H          1.28663        5.87186       -0.43997
H          0.92770        4.31390       -1.17699
H         -0.35694        5.64672        1.24241
H          0.58319        4.17501        1.24545
H         -0.79950        6.94840       -3.26007
H          0.44985        7.49935       -2.19211
H          1.98943        5.70303       -2.92133
H         -0.28906        4.87882       -4.79422
H          1.40509        4.43169       -5.04920
H          0.57070        3.86203       -3.61554
H          1.95548        7.91733       -4.03600
H          2.40121        6.63535       -5.16793
H          0.76840        7.32370       -5.21173

--Link1--
%chk=JID_10865.chk
%mem=8GB
%nprocshared=4
# B3LYP/6-311++G(d,p) empiricaldispersion=gd3bj scf=xqc pop=npa geom=check

CID_103783667_JID_10865_Energie_neutraal

0 1

--Link1--
%chk=JID_10865.chk
%mem=8GB
%nprocshared=4
# B3LYP/6-311++G(d,p) empiricaldispersion=gd3bj scf=xqc pop=npa geom=check

CID_103783667_JID_10865_Energie_kation

1 2

--Link1--
%chk=JID_10865.chk
%mem=8GB
%nprocshared=4
# B3LYP/6-311++G(d,p) empiricaldispersion=gd3bj scf=xqc pop=npa geom=check

CID_103783667_JID_10865_Energie_anion

-1 2
