%chk=JID_2247.chk
%mem=8GB
%nprocshared=4
# opt freq B3LYP/6-31G(d) empiricaldispersion=gd3bj scf=xqc

CID_143956334_JID_2247_neutraal

0 1
C          0.92995        0.03177        0.06391
C          0.40651       -0.20022        1.45570
C         -0.29375        0.80008        2.17632
C         -0.55699        2.16684        1.58759
C          0.10790        3.24949        2.38718
C         -0.16174        3.47574        3.67919
C         -1.20321        2.67782        4.36788
N         -1.48894        1.42104        4.28465
C         -0.75519        0.52508        3.48459
C         -0.53012       -0.74183        4.03570
C          0.15650       -1.72520        3.33019
C          0.62290       -1.45434        2.04853
H          0.10419        0.24581       -0.62200
H          1.45500       -0.84865       -0.32222
H          1.64229        0.86294        0.05891
H         -1.63918        2.34105        1.52730
H         -0.20090        2.24434        0.55595
H          0.84961        3.86020        1.88092
H          0.31123        4.26902        4.24355
H         -1.81314        3.27299        5.06967
H         -0.90241       -0.95788        5.03410
H          0.32214       -2.70027        3.77928
H          1.15666       -2.23452        1.50969

--Link1--
%chk=JID_2247.chk
%mem=8GB
%nprocshared=4
# B3LYP/6-311++G(d,p) empiricaldispersion=gd3bj scf=xqc pop=npa geom=check

CID_143956334_JID_2247_Energie_neutraal

0 1

--Link1--
%chk=JID_2247.chk
%mem=8GB
%nprocshared=4
# B3LYP/6-311++G(d,p) empiricaldispersion=gd3bj scf=xqc pop=npa geom=check

CID_143956334_JID_2247_Energie_kation

1 2

--Link1--
%chk=JID_2247.chk
%mem=8GB
%nprocshared=4
# B3LYP/6-311++G(d,p) empiricaldispersion=gd3bj scf=xqc pop=npa geom=check

CID_143956334_JID_2247_Energie_anion

-1 2
