%chk=JID_6397.chk
%mem=8GB
%nprocshared=4
# opt freq B3LYP/6-31G(d) empiricaldispersion=gd3bj scf=xqc

CID_115759826_JID_6397_neutraal

0 1
C          0.94644       -0.07795        0.03248
N          0.18747        0.55010        1.10581
C         -1.22501        0.67778        0.77231
C          0.43577       -0.04612        2.42795
C         -0.07528       -1.46790        2.69359
C          0.98187       -2.52076        2.41484
O          2.04859       -2.48427        3.03733
N          0.72563       -3.52995        1.49694
C         -0.51839       -3.66797        0.75271
C          1.64564       -4.68226        1.44129
C          3.04985       -4.37772        0.86637
C          3.07326       -3.40080       -0.30894
C          4.42272       -3.64510       -0.98373
C          4.82865       -5.07249       -0.61951
C          3.70250       -5.62214        0.25518
O          3.92622       -3.90095        1.89255
H          0.61140       -1.09558       -0.18207
H          2.01343       -0.10534        0.27804
H          0.85605        0.50630       -0.89023
H         -1.70340       -0.28720        0.57797
H         -1.77186        1.17996        1.57794
H         -1.34892        1.29904       -0.12188
H          1.50927        0.02389        2.64566
H         -0.03720        0.61568        3.16618
H         -0.28008       -1.55702        3.77014
H         -1.03771       -1.66211        2.22469
H         -0.32588       -4.18459       -0.19254
H         -1.22199       -4.24840        1.35576
H         -0.95653       -2.70015        0.50961
H          1.74072       -5.07012        2.46354
H          1.16166       -5.46536        0.84584
H          2.26549       -3.61819       -1.01766
H          2.99290       -2.35678        0.00685
H          5.17204       -2.93871       -0.60746
H          4.35604       -3.50327       -2.06709
H          5.77405       -5.06081       -0.06478
H          4.97942       -5.69225       -1.50919
H          4.09629       -6.30975        1.01077
H          2.99311       -6.16985       -0.37708
H          3.41998       -3.24094        2.41809

--Link1--
%chk=JID_6397.chk
%mem=8GB
%nprocshared=4
# B3LYP/6-311++G(d,p) empiricaldispersion=gd3bj scf=xqc pop=npa geom=check

CID_115759826_JID_6397_Energie_neutraal

0 1

--Link1--
%chk=JID_6397.chk
%mem=8GB
%nprocshared=4
# B3LYP/6-311++G(d,p) empiricaldispersion=gd3bj scf=xqc pop=npa geom=check

CID_115759826_JID_6397_Energie_kation

1 2

--Link1--
%chk=JID_6397.chk
%mem=8GB
%nprocshared=4
# B3LYP/6-311++G(d,p) empiricaldispersion=gd3bj scf=xqc pop=npa geom=check

CID_115759826_JID_6397_Energie_anion

-1 2
