%chk=JID_7078.chk
%mem=8GB
%nprocshared=4
# opt freq B3LYP/6-31G(d) empiricaldispersion=gd3bj scf=xqc

CID_116136375_JID_7078_neutraal

0 1
C          0.94962       -0.08159       -0.02836
C          0.40171        1.06738       -0.88004
C          0.91122        0.96890       -2.31952
C         -1.11448        1.13518       -0.84215
C         -1.74918        2.32627       -0.46198
C         -3.14344        2.41209       -0.42304
C         -3.93694        1.30989       -0.76457
C         -3.30608        0.11986       -1.14750
C         -1.91153        0.03570       -1.19041
C         -5.44436        1.40089       -0.70935
N         -5.90269        1.58058        0.66640
C         -7.35782        1.54404        0.79517
C         -7.98620        0.14724        0.70188
C         -7.56172       -0.75440        1.85539
C         -8.09529       -0.40611        3.27207
C         -8.22140       -1.92300        3.51825
C         -8.34779       -2.08709        1.98990
H          0.66818       -1.06180       -0.42775
H          0.57706       -0.01895        1.00013
H          2.04381       -0.04272        0.00875
H          0.80246        1.99675       -0.45372
H          0.58420        0.04290       -2.80521
H          0.54616        1.80798       -2.92237
H          2.00608        0.99066       -2.34370
H         -1.16322        3.20057       -0.18784
H         -3.61482        3.34285       -0.11313
H         -3.89525       -0.75365       -1.41616
H         -1.45428       -0.90127       -1.49951
H         -5.76460        2.24548       -1.33182
H         -5.87251        0.49551       -1.15323
H         -5.47022        0.87327        1.25745
H         -7.61172        1.98244        1.76731
H         -7.81321        2.19980        0.04294
H         -9.07728        0.26483        0.70603
H         -7.73474       -0.32900       -0.25197
H         -6.47840       -0.94103        1.85419
H         -7.39616        0.12219        3.92542
H         -9.05711        0.12011        3.27933
H         -9.08698       -2.24026        4.10476
H         -7.31715       -2.37839        3.93814
H         -9.38255       -2.04660        1.62994
H         -7.85993       -2.96967        1.56793

--Link1--
%chk=JID_7078.chk
%mem=8GB
%nprocshared=4
# B3LYP/6-311++G(d,p) empiricaldispersion=gd3bj scf=xqc pop=npa geom=check

CID_116136375_JID_7078_Energie_neutraal

0 1

--Link1--
%chk=JID_7078.chk
%mem=8GB
%nprocshared=4
# B3LYP/6-311++G(d,p) empiricaldispersion=gd3bj scf=xqc pop=npa geom=check

CID_116136375_JID_7078_Energie_kation

1 2

--Link1--
%chk=JID_7078.chk
%mem=8GB
%nprocshared=4
# B3LYP/6-311++G(d,p) empiricaldispersion=gd3bj scf=xqc pop=npa geom=check

CID_116136375_JID_7078_Energie_anion

-1 2
