%chk=JID_10002.chk
%mem=8GB
%nprocshared=4
# opt freq B3LYP/6-31G(d) empiricaldispersion=gd3bj scf=xqc

CID_102960640_JID_10002_neutraal

0 1
C          0.93351        0.00505       -0.07452
O          0.36219       -0.27221        1.19538
C          0.89521       -1.44935        1.81980
C          0.25783       -2.72201        1.25211
C         -1.20920       -2.83086        1.66204
C         -1.36981       -2.74092        3.18062
N         -0.79059       -1.50239        3.69753
C          0.63541       -1.36237        3.34333
C         -1.04990       -1.26885        5.13138
C         -0.41149       -2.30215        6.06894
O          0.79011       -2.23002        6.33917
C         -1.22859       -3.38207        6.61948
C         -2.58795       -3.56835        6.45290
O         -3.01659       -4.68261        7.09802
C         -1.93045       -5.23637        7.69858
C         -1.93922       -6.40009        8.46439
C         -0.71207       -6.80749        8.99658
C          0.45329       -6.07410        8.76353
C          0.42784       -4.90625        7.98764
C         -0.79684       -4.47512        7.44002
H          0.50414        0.94034       -0.44417
H          0.70188       -0.78418       -0.79391
H          2.01687        0.13318        0.01003
H          1.98082       -1.47473        1.66154
H          0.32451       -2.74875        0.16021
H          0.80111       -3.59707        1.63008
H         -1.79035       -2.03546        1.17873
H         -1.61828       -3.78381        1.30717
H         -2.44117       -2.77612        3.41001
H         -0.90351       -3.61950        3.64295
H          1.23016       -2.14183        3.83407
H          0.99494       -0.38790        3.69595
H         -0.65870       -0.28434        5.41945
H         -2.12775       -1.19646        5.30661
H         -3.36452       -3.02970        5.92683
H         -2.85298       -6.95609        8.63461
H         -0.66576       -7.71030        9.60205
H          1.39645       -6.41095        9.18894
H          1.34221       -4.34433        7.81379

--Link1--
%chk=JID_10002.chk
%mem=8GB
%nprocshared=4
# B3LYP/6-311++G(d,p) empiricaldispersion=gd3bj scf=xqc pop=npa geom=check

CID_102960640_JID_10002_Energie_neutraal

0 1

--Link1--
%chk=JID_10002.chk
%mem=8GB
%nprocshared=4
# B3LYP/6-311++G(d,p) empiricaldispersion=gd3bj scf=xqc pop=npa geom=check

CID_102960640_JID_10002_Energie_kation

1 2

--Link1--
%chk=JID_10002.chk
%mem=8GB
%nprocshared=4
# B3LYP/6-311++G(d,p) empiricaldispersion=gd3bj scf=xqc pop=npa geom=check

CID_102960640_JID_10002_Energie_anion

-1 2
