%chk=JID_9271.chk
%mem=8GB
%nprocshared=4
# opt freq B3LYP/6-31G(d) empiricaldispersion=gd3bj scf=xqc

CID_98032988_JID_9271_neutraal

0 1
C          1.03424        0.02553        0.09042
C          0.79775       -1.48520        0.14800
C          1.97714       -2.16879        0.83900
N         -0.47229       -1.70797        0.84193
C         -0.99927       -3.06782        0.73754
C         -0.81526       -3.92850        1.99627
C         -1.50666       -3.40919        3.26254
C         -3.00920       -3.35183        3.16025
C         -3.66221       -2.13472        2.95044
C         -5.05524       -2.08540        2.84982
C         -5.83570       -3.24896        2.95576
C         -5.17123       -4.46430        3.15507
C         -3.77655       -4.51643        3.25719
C         -7.34990       -3.13263        2.83472
C         -7.89628       -3.71955        1.52122
C         -8.20305       -5.21354        1.57416
C         -9.08340       -5.56610        2.76617
C         -8.46582       -5.11110        4.08206
C         -8.12132       -3.62325        4.07480
H          1.12333        0.45964        1.09294
H          0.21169        0.53249       -0.42679
H          1.95618        0.25208       -0.45627
H          0.72602       -1.84495       -0.88578
H          2.04360       -1.88503        1.89536
H          1.89565       -3.25843        0.78093
H          2.92157       -1.88956        0.35904
H         -0.41018       -1.40264        1.80966
H         -2.06869       -2.99135        0.51163
H         -0.56192       -3.59483       -0.11970
H         -1.18412       -4.93789        1.77258
H          0.25341       -4.03896        2.21187
H         -1.24748       -4.07070        4.10000
H         -1.11094       -2.42670        3.54516
H         -3.09267       -1.21307        2.85319
H         -5.52676       -1.11904        2.68234
H         -5.71813       -5.39730        3.23040
H         -3.29416       -5.47874        3.41341
H         -7.55800       -2.05340        2.78136
H         -8.83442       -3.19897        1.28435
H         -7.21414       -3.51244        0.68752
H         -7.27440       -5.79197        1.61167
H         -8.71154       -5.50955        0.64896
H         -9.25019       -6.64888        2.79328
H        -10.06737       -5.09651        2.64418
H         -7.57501       -5.70793        4.29923
H         -9.16868       -5.31264        4.89938
H         -7.58362       -3.36460        4.99525
H         -9.07127       -3.07211        4.11349

--Link1--
%chk=JID_9271.chk
%mem=8GB
%nprocshared=4
# B3LYP/6-311++G(d,p) empiricaldispersion=gd3bj scf=xqc pop=npa geom=check

CID_98032988_JID_9271_Energie_neutraal

0 1

--Link1--
%chk=JID_9271.chk
%mem=8GB
%nprocshared=4
# B3LYP/6-311++G(d,p) empiricaldispersion=gd3bj scf=xqc pop=npa geom=check

CID_98032988_JID_9271_Energie_kation

1 2

--Link1--
%chk=JID_9271.chk
%mem=8GB
%nprocshared=4
# B3LYP/6-311++G(d,p) empiricaldispersion=gd3bj scf=xqc pop=npa geom=check

CID_98032988_JID_9271_Energie_anion

-1 2
