%chk=JID_5252.chk
%mem=8GB
%nprocshared=4
# opt freq B3LYP/6-31G(d) empiricaldispersion=gd3bj scf=xqc

CID_64504936_JID_5252_neutraal

0 1
C          1.05888        0.08044        0.00788
C          0.93041        0.49749       -1.44999
N          1.41675       -0.57790       -2.31021
C          1.29772       -0.26276       -3.74115
C          2.43749        0.65297       -4.20183
C          1.33983       -1.57794       -4.54826
C          0.16858       -2.53978       -4.28585
C         -1.03647       -2.33799       -5.21481
C         -1.79189       -1.04829       -5.02383
C         -2.47209       -0.78877       -3.82758
C         -3.17033        0.40839       -3.65202
C         -3.21495        1.36090       -4.67550
C         -2.52953        1.10721       -5.86834
C         -1.83050       -0.08958       -6.04400
C         -3.93445        2.66121       -4.47548
H          0.48081       -0.82712        0.21268
H          0.68230        0.87408        0.66123
H          2.10369       -0.10947        0.27618
H         -0.12336        0.70803       -1.66463
H          1.50108        1.41885       -1.60466
H          2.38411       -0.80178       -2.08079
H          0.35024        0.24632       -3.93746
H          3.41758        0.19792       -4.01994
H          2.35697        0.85510       -5.27563
H          2.41154        1.61889       -3.68781
H          1.39590       -1.35613       -5.62156
H          2.27210       -2.10614       -4.30319
H          0.53706       -3.55837       -4.46649
H         -0.14122       -2.51411       -3.23555
H         -1.74321       -3.16392       -5.05957
H         -0.70563       -2.42902       -6.25736
H         -2.45296       -1.51517       -3.01810
H         -3.67952        0.59042       -2.70856
H         -2.53656        1.84034       -6.67159
H         -1.31047       -0.26430       -6.98294
H         -4.35598        3.02210       -5.41959
H         -4.76598        2.54521       -3.77243
H         -3.24387        3.41457       -4.08422

--Link1--
%chk=JID_5252.chk
%mem=8GB
%nprocshared=4
# B3LYP/6-311++G(d,p) empiricaldispersion=gd3bj scf=xqc pop=npa geom=check

CID_64504936_JID_5252_Energie_neutraal

0 1

--Link1--
%chk=JID_5252.chk
%mem=8GB
%nprocshared=4
# B3LYP/6-311++G(d,p) empiricaldispersion=gd3bj scf=xqc pop=npa geom=check

CID_64504936_JID_5252_Energie_kation

1 2

--Link1--
%chk=JID_5252.chk
%mem=8GB
%nprocshared=4
# B3LYP/6-311++G(d,p) empiricaldispersion=gd3bj scf=xqc pop=npa geom=check

CID_64504936_JID_5252_Energie_anion

-1 2
