%chk=JID_8733.chk
%mem=8GB
%nprocshared=4
# opt freq B3LYP/6-31G(d) empiricaldispersion=gd3bj scf=xqc

CID_116393940_JID_8733_neutraal

0 1
C          1.06476        0.02849        0.07067
C          0.99531       -0.65463        1.43866
C         -0.36182       -0.39427        2.11182
C         -1.49991       -1.22652        1.51038
N         -1.21573       -2.65418        1.39505
C          0.08498       -2.96264        0.81488
C          1.26945       -2.17445        1.39943
C          2.55903       -2.53347        0.65618
C         -1.65136       -3.49171        2.51840
C         -1.18836       -3.08885        3.87486
C         -0.03362       -3.29179        4.59996
C         -0.17994       -2.57706        5.82544
C         -1.46257       -2.05735        5.79492
O         -2.07321       -2.36405        4.61888
C         -2.25656       -1.24209        6.73676
C          0.84313       -2.41458        6.89651
N          1.33999       -1.04161        6.82703
C          2.41755       -0.81914        7.77688
H          0.81113        1.09079        0.15718
H          0.37685       -0.42090       -0.65152
H          2.07512       -0.02418       -0.34688
H          1.76907       -0.18589        2.06180
H         -0.26834       -0.60686        3.18159
H         -0.61839        0.67006        2.04370
H         -1.71064       -0.84694        0.50252
H         -2.42497       -1.05248        2.07400
H          0.01847       -2.75555       -0.26149
H          0.28815       -4.03948        0.87699
H          1.41683       -2.49798        2.43464
H          3.40633       -1.95964        1.04500
H          2.78954       -3.59698        0.78319
H          2.47720       -2.34323       -0.41895
H         -1.36937       -4.53700        2.33915
H         -2.74961       -3.50067        2.51741
H          0.83329       -3.84386        4.26569
H         -2.60341       -0.32477        6.25128
H         -3.13167       -1.80383        7.07818
H         -1.67109       -0.96026        7.61663
H          0.39227       -2.61526        7.87513
H          1.65829       -3.13189        6.74311
H          1.67309       -0.85911        5.88079
H          3.27879       -1.46102        7.56567
H          2.75036        0.22157        7.71152
H          2.08279       -0.99317        8.80444

--Link1--
%chk=JID_8733.chk
%mem=8GB
%nprocshared=4
# B3LYP/6-311++G(d,p) empiricaldispersion=gd3bj scf=xqc pop=npa geom=check

CID_116393940_JID_8733_Energie_neutraal

0 1

--Link1--
%chk=JID_8733.chk
%mem=8GB
%nprocshared=4
# B3LYP/6-311++G(d,p) empiricaldispersion=gd3bj scf=xqc pop=npa geom=check

CID_116393940_JID_8733_Energie_kation

1 2

--Link1--
%chk=JID_8733.chk
%mem=8GB
%nprocshared=4
# B3LYP/6-311++G(d,p) empiricaldispersion=gd3bj scf=xqc pop=npa geom=check

CID_116393940_JID_8733_Energie_anion

-1 2
