%chk=JID_5173.chk
%mem=8GB
%nprocshared=4
# opt freq B3LYP/6-31G(d) empiricaldispersion=gd3bj scf=xqc

CID_150658147_JID_5173_neutraal

0 1
C         -0.02900        0.88300        0.00000
C          0.19105       -0.04670        1.14454
C          1.37880        0.41477        0.32019
N          2.13677       -0.46807       -0.55711
C          3.49430       -0.33621       -0.74978
C          3.80560       -1.34944       -1.65056
C          5.12993       -1.49739       -2.07371
N          6.09602       -0.66309       -1.60805
C          5.75275        0.30794       -0.73206
C          4.46864        0.53481       -0.25512
N          2.68722       -2.07047       -1.98567
C          1.67815       -1.53589       -1.31964
N          0.37471       -1.90839       -1.32526
N          0.19361       -2.94082       -1.99668
N         -0.02092       -3.88739       -2.59770
H         -0.27982        1.91473        0.22439
H         -0.53283        0.50556       -0.88192
H          0.08960        0.35173        2.14896
H         -0.16316       -1.06667        1.05651
H          2.00513        1.16029        0.80309
H          5.43652       -2.26436       -2.77394
H          6.57915        0.93488       -0.40424
H          4.25733        1.33109        0.44592

--Link1--
%chk=JID_5173.chk
%mem=8GB
%nprocshared=4
# B3LYP/6-311++G(d,p) empiricaldispersion=gd3bj scf=xqc pop=npa geom=check

CID_150658147_JID_5173_Energie_neutraal

0 1

--Link1--
%chk=JID_5173.chk
%mem=8GB
%nprocshared=4
# B3LYP/6-311++G(d,p) empiricaldispersion=gd3bj scf=xqc pop=npa geom=check

CID_150658147_JID_5173_Energie_kation

1 2

--Link1--
%chk=JID_5173.chk
%mem=8GB
%nprocshared=4
# B3LYP/6-311++G(d,p) empiricaldispersion=gd3bj scf=xqc pop=npa geom=check

CID_150658147_JID_5173_Energie_anion

-1 2
