%chk=JID_6965.chk
%mem=8GB
%nprocshared=4
# opt freq B3LYP/6-31G(d) empiricaldispersion=gd3bj scf=xqc

CID_86778352_JID_6965_neutraal

0 1
C          1.06808       -0.00896       -0.07269
C          2.04924       -0.05327        1.08535
N          2.13312        1.25135        1.72450
C          2.89714        2.18320        1.27881
N          3.72102        2.10230        0.19877
N          2.95501        3.41086        1.88930
C          2.15642        3.70164        3.08614
C          1.89322        5.20278        3.02892
C          3.11320        5.73440        2.28631
C          3.34696        4.65666        1.23088
C          2.90418        7.11421        1.68048
O          2.72875        8.05407        2.74065
C          2.23493        9.32484        2.29854
C          3.25445       10.11675        1.47607
O          3.23891        9.66344        0.11711
C          4.18175       10.36912       -0.67933
H          0.08209        0.32838        0.26389
H          0.95673       -1.00353       -0.51539
H          1.40507        0.67684       -0.85624
H          1.68520       -0.77080        1.82952
H          3.02599       -0.42995        0.76391
H          4.62409        2.51680        0.38555
H          3.83193        1.16921       -0.16887
H          2.73827        3.44210        3.97738
H          1.20648        3.15750        3.11567
H          0.97545        5.39827        2.46033
H          1.77448        5.63897        4.02526
H          3.95851        5.76106        2.98776
H          2.72064        4.82102        0.34571
H          4.39805        4.64584        0.92406
H          3.79024        7.38791        1.09859
H          2.02794        7.11797        1.02131
H          1.29717        9.18076        1.74994
H          2.00830        9.88841        3.20949
H          2.98137       11.17771        1.48766
H          4.26047        9.98912        1.89099
H          3.94696       11.43772       -0.69479
H          5.19639       10.21047       -0.30170
H          4.12526        9.98404       -1.70098

--Link1--
%chk=JID_6965.chk
%mem=8GB
%nprocshared=4
# B3LYP/6-311++G(d,p) empiricaldispersion=gd3bj scf=xqc pop=npa geom=check

CID_86778352_JID_6965_Energie_neutraal

0 1

--Link1--
%chk=JID_6965.chk
%mem=8GB
%nprocshared=4
# B3LYP/6-311++G(d,p) empiricaldispersion=gd3bj scf=xqc pop=npa geom=check

CID_86778352_JID_6965_Energie_kation

1 2

--Link1--
%chk=JID_6965.chk
%mem=8GB
%nprocshared=4
# B3LYP/6-311++G(d,p) empiricaldispersion=gd3bj scf=xqc pop=npa geom=check

CID_86778352_JID_6965_Energie_anion

-1 2
