%chk=JID_2189.chk
%mem=8GB
%nprocshared=4
# opt freq B3LYP/6-31G(d) empiricaldispersion=gd3bj scf=xqc

CID_146667366_JID_2189_neutraal

0 1
C          0.96030       -0.08760        0.02741
O          1.70333        0.97577        0.61319
N          2.96049        0.43332        1.09447
C          4.06831        1.22700        0.53283
C          4.17756        1.12076       -0.99827
C          3.27446        2.08020       -1.77790
C          3.44726        3.52445       -1.29743
C          3.18131        3.62660        0.21450
C          4.08687        2.68824        1.00982
C          2.55087        4.49444       -2.09391
C          3.07044        5.90799       -1.88823
C          3.51614        7.12054       -1.71180
H          0.03200        0.32580       -0.37624
H          0.70760       -0.83702        0.78433
H          1.51873       -0.55187       -0.79170
H          2.89057        0.61783        2.09651
H          4.96921        0.75300        0.94429
H          5.21829        1.33656       -1.27652
H          3.99167        0.09033       -1.32523
H          2.22533        1.77945       -1.70090
H          3.53236        2.01343       -2.84213
H          4.49720        3.80215       -1.47308
H          2.12817        3.41386        0.42883
H          3.36035        4.65096        0.56241
H          3.83436        2.74948        2.07571
H          5.11728        3.06000        0.92712
H          2.59476        4.26745       -3.16517
H          1.50532        4.42791       -1.77459
H          3.88010        8.11154       -1.56716

--Link1--
%chk=JID_2189.chk
%mem=8GB
%nprocshared=4
# B3LYP/6-311++G(d,p) empiricaldispersion=gd3bj scf=xqc pop=npa geom=check

CID_146667366_JID_2189_Energie_neutraal

0 1

--Link1--
%chk=JID_2189.chk
%mem=8GB
%nprocshared=4
# B3LYP/6-311++G(d,p) empiricaldispersion=gd3bj scf=xqc pop=npa geom=check

CID_146667366_JID_2189_Energie_kation

1 2

--Link1--
%chk=JID_2189.chk
%mem=8GB
%nprocshared=4
# B3LYP/6-311++G(d,p) empiricaldispersion=gd3bj scf=xqc pop=npa geom=check

CID_146667366_JID_2189_Energie_anion

-1 2
