%chk=JID_7046.chk
%mem=8GB
%nprocshared=4
# opt freq B3LYP/6-31G(d) empiricaldispersion=gd3bj scf=xqc

CID_113562993_JID_7046_neutraal

0 1
C         -2.55700       -0.42200       -0.01100
C         -1.09221       -0.18133        0.06328
C         -0.09077       -1.13611        0.06880
S          1.43738       -0.36539        0.15008
C          0.66993        1.18392        0.18914
N         -0.64865        1.12716        0.14667
C          1.49593        2.47637        0.28144
C          2.51611        2.61440       -0.86544
C          3.41267        3.82581       -0.64689
O          4.07662        3.73107        0.61195
C          3.15298        3.74094        1.70058
C          2.24179        2.52297        1.63262
O          0.58597        3.60739        0.33133
C         -0.09265        3.94338       -0.87152
C         -0.19613       -2.62788        0.02605
N         -0.09034       -3.10709       -1.35202
C         -0.22102       -4.55522       -1.41287
H         -2.91638       -0.86757        0.92168
H         -3.09999        0.51441       -0.17361
H         -2.79694       -1.09848       -0.83724
H          3.15921        1.72642       -0.90320
H          2.02491        2.69010       -1.84158
H          4.18262        3.85877       -1.42457
H          2.85720        4.76874       -0.69929
H          2.58811        4.68029        1.69746
H          3.73536        3.71446        2.62731
H          1.53345        2.55721        2.46960
H          2.86213        1.62723        1.75872
H          0.57100        4.50754       -1.53233
H         -0.48406        3.07231       -1.40145
H         -0.93210        4.59478       -0.61219
H          0.59373       -3.07348        0.64380
H         -1.15483       -2.93521        0.46227
H         -0.82086       -2.67410       -1.91482
H         -1.19576       -4.88698       -1.04059
H         -0.12706       -4.88661       -2.45160
H          0.56894       -5.04904       -0.83766

--Link1--
%chk=JID_7046.chk
%mem=8GB
%nprocshared=4
# B3LYP/6-311++G(d,p) empiricaldispersion=gd3bj scf=xqc pop=npa geom=check

CID_113562993_JID_7046_Energie_neutraal

0 1

--Link1--
%chk=JID_7046.chk
%mem=8GB
%nprocshared=4
# B3LYP/6-311++G(d,p) empiricaldispersion=gd3bj scf=xqc pop=npa geom=check

CID_113562993_JID_7046_Energie_kation

1 2

--Link1--
%chk=JID_7046.chk
%mem=8GB
%nprocshared=4
# B3LYP/6-311++G(d,p) empiricaldispersion=gd3bj scf=xqc pop=npa geom=check

CID_113562993_JID_7046_Energie_anion

-1 2
