%chk=JID_6806.chk
%mem=8GB
%nprocshared=4
# opt freq B3LYP/6-31G(d) empiricaldispersion=gd3bj scf=xqc

CID_79382515_JID_6806_neutraal

0 1
C          0.90331       -0.00971       -0.02361
C          0.81966        0.61970       -1.41355
C         -0.65819        0.95688       -1.72865
C         -0.57586        2.30686       -2.43229
C          0.58502        2.97782       -1.72847
N          1.53502        1.90054       -1.49946
C          2.85486        2.22134       -1.44838
O          3.22341        3.40114       -1.42568
N          3.84329        1.31466       -1.44854
C          3.93180       -0.12634       -1.45875
C          5.24791       -0.54514       -2.03991
C          5.41246       -1.93198       -2.60786
C          5.39824       -0.74104       -3.52668
C         -1.29502       -0.11662       -2.57000
O         -0.97964       -1.29494       -2.60241
O         -2.36457        0.31763       -3.26310
H          0.36547       -0.96302        0.00229
H          0.46070        0.64864        0.73321
H          1.92753       -0.19481        0.29628
H          1.22652       -0.05007       -2.17293
H         -1.25140        1.05925       -0.81103
H         -1.50078        2.88560       -2.34690
H         -0.35314        2.18095       -3.49930
H          0.28444        3.37159       -0.75039
H          1.00772        3.79247       -2.32446
H          4.72810        1.80036       -1.38093
H          3.88745       -0.46861       -0.42193
H          3.11232       -0.56517       -2.02200
H          6.09017       -0.14165       -1.48824
H          6.35834       -2.43697       -2.44593
H          4.55507       -2.59562       -2.62263
H          4.52894       -0.59653       -4.15892
H          6.33279       -0.44055       -3.98633
H         -2.69858       -0.48084       -3.72419

--Link1--
%chk=JID_6806.chk
%mem=8GB
%nprocshared=4
# B3LYP/6-311++G(d,p) empiricaldispersion=gd3bj scf=xqc pop=npa geom=check

CID_79382515_JID_6806_Energie_neutraal

0 1

--Link1--
%chk=JID_6806.chk
%mem=8GB
%nprocshared=4
# B3LYP/6-311++G(d,p) empiricaldispersion=gd3bj scf=xqc pop=npa geom=check

CID_79382515_JID_6806_Energie_kation

1 2

--Link1--
%chk=JID_6806.chk
%mem=8GB
%nprocshared=4
# B3LYP/6-311++G(d,p) empiricaldispersion=gd3bj scf=xqc pop=npa geom=check

CID_79382515_JID_6806_Energie_anion

-1 2
