%chk=JID_6314.chk
%mem=8GB
%nprocshared=4
# opt freq B3LYP/6-31G(d) empiricaldispersion=gd3bj scf=xqc

CID_60728106_JID_6314_neutraal

0 1
C         -1.21600        1.28400       -0.19900
C         -1.88205       -0.07468       -0.02142
C         -1.04548       -1.18904       -0.64349
C          0.39264       -1.21018       -0.09682
C          1.06317        0.17740       -0.20979
C          0.19028        1.28439        0.38292
O          2.30175        0.19313        0.50220
O          1.26411       -2.25134       -0.60873
C          1.13863       -2.60870       -1.92248
C          0.16975       -3.55267       -2.27574
C          0.05541       -3.98473       -3.59790
C          0.93446       -3.50512       -4.56650
C          1.94561       -2.61287       -4.20687
C          2.06472       -2.17814       -2.87946
C          3.15791       -1.32838       -2.51927
N          4.03179       -0.63079       -2.20732
H         -1.17373        1.53832       -1.26508
H         -1.81846        2.05681        0.29141
H         -2.87627       -0.06060       -0.48215
H         -2.02737       -0.27743        1.04673
H         -1.03938       -1.05058       -1.73141
H         -1.53305       -2.15097       -0.45005
H          0.32504       -1.44441        0.97443
H          1.27897        0.41362       -1.25726
H          0.13989        1.16967        1.47390
H          0.66568        2.25815        0.21240
H          2.92764       -0.37551        0.01473
H         -0.49504       -3.96345       -1.52027
H         -0.71132       -4.70724       -3.86833
H          0.84936       -3.84671       -5.59569
H          2.65148       -2.27475       -4.96377

--Link1--
%chk=JID_6314.chk
%mem=8GB
%nprocshared=4
# B3LYP/6-311++G(d,p) empiricaldispersion=gd3bj scf=xqc pop=npa geom=check

CID_60728106_JID_6314_Energie_neutraal

0 1

--Link1--
%chk=JID_6314.chk
%mem=8GB
%nprocshared=4
# B3LYP/6-311++G(d,p) empiricaldispersion=gd3bj scf=xqc pop=npa geom=check

CID_60728106_JID_6314_Energie_kation

1 2

--Link1--
%chk=JID_6314.chk
%mem=8GB
%nprocshared=4
# B3LYP/6-311++G(d,p) empiricaldispersion=gd3bj scf=xqc pop=npa geom=check

CID_60728106_JID_6314_Energie_anion

-1 2
