%chk=JID_8504.chk
%mem=8GB
%nprocshared=4
# opt freq B3LYP/6-31G(d) empiricaldispersion=gd3bj scf=xqc

CID_60733540_JID_8504_neutraal

0 1
C          1.01935       -0.06277        0.07540
N          0.94871        1.20973       -0.65908
C          0.28214        0.95721       -1.96011
C         -1.24083        1.13682       -1.84514
C         -1.70450        2.57474       -2.10931
N         -1.78196        2.83096       -3.55048
C         -2.08821        4.22513       -3.86452
C         -0.81440        5.01184       -3.97703
C          0.04977        4.95896       -5.05855
S          1.41488        5.96994       -4.87278
C          0.86560        6.51832       -3.35177
C         -0.32885        5.93533       -2.99253
C          2.27963        1.85236       -0.83004
C          2.11931        3.33966       -1.23403
C          1.55433        4.20239       -0.10266
C          2.41321        4.11443        1.15404
C          2.64664        2.66934        1.57952
C          3.19055        1.82741        0.42430
H          0.04192       -0.55819        0.10348
H          1.29042        0.09331        1.12345
H          1.73664       -0.75732       -0.37695
H          0.66267        1.60840       -2.75338
H          0.50316       -0.06124       -2.30749
H         -1.73561        0.45594       -2.55017
H         -1.58933        0.83136       -0.85066
H         -2.70619        2.69879       -1.68104
H         -1.03943        3.28300       -1.60640
H         -0.91102        2.56855       -4.00669
H         -2.60550        4.25555       -4.83094
H         -2.77282        4.67086       -3.13309
H         -0.05537        4.36216       -5.95479
H          1.44660        7.23828       -2.79153
H         -0.83225        6.15225       -2.05740
H          2.82119        1.32694       -1.62859
H          3.10315        3.73479       -1.52072
H          1.48968        3.45211       -2.12111
H          0.53010        3.89132        0.13279
H          1.50035        5.24674       -0.42917
H          1.93533        4.66861        1.96984
H          3.38011        4.59738        0.96604
H          1.70816        2.24396        1.95226
H          3.35631        2.64600        2.41446
H          3.37859        0.80277        0.76274
H          4.17719        2.22106        0.14312

--Link1--
%chk=JID_8504.chk
%mem=8GB
%nprocshared=4
# B3LYP/6-311++G(d,p) empiricaldispersion=gd3bj scf=xqc pop=npa geom=check

CID_60733540_JID_8504_Energie_neutraal

0 1

--Link1--
%chk=JID_8504.chk
%mem=8GB
%nprocshared=4
# B3LYP/6-311++G(d,p) empiricaldispersion=gd3bj scf=xqc pop=npa geom=check

CID_60733540_JID_8504_Energie_kation

1 2

--Link1--
%chk=JID_8504.chk
%mem=8GB
%nprocshared=4
# B3LYP/6-311++G(d,p) empiricaldispersion=gd3bj scf=xqc pop=npa geom=check

CID_60733540_JID_8504_Energie_anion

-1 2
