%chk=JID_1291.chk
%mem=8GB
%nprocshared=4
# opt freq B3LYP/6-31G(d) empiricaldispersion=gd3bj scf=xqc

CID_84649554_JID_1291_neutraal

0 1
C          1.04742        0.00646        0.08780
C          0.66011       -1.39393       -0.20481
C          1.16012       -2.58392        0.28158
C          0.40017       -3.58450       -0.34566
N         -0.51722       -3.08231       -1.17230
N         -0.34018       -1.74502       -1.08204
C         -1.20898       -0.85755       -1.84874
C         -0.61367       -0.35953       -3.16952
C          0.59048       -1.03004       -3.81279
C         -0.77663       -1.27823       -4.36707
N         -0.77293        1.09454       -3.42421
H          0.22637        0.54124        0.57536
H          1.31531        0.53765       -0.83074
H          1.91341        0.03949        0.75695
H          1.96126       -2.71109        0.99551
H          0.47431       -4.65833       -0.23354
H         -2.14980       -1.39108       -2.03199
H         -1.45062       -0.01383       -1.19143
H          1.27314       -0.42818       -4.40220
H          1.08157       -1.86100       -3.31817
H         -1.20480       -2.26417       -4.21121
H         -1.02541       -0.85072       -5.33104
H         -0.03410        1.61767       -2.95381
H         -0.66608        1.30513       -4.41686

--Link1--
%chk=JID_1291.chk
%mem=8GB
%nprocshared=4
# B3LYP/6-311++G(d,p) empiricaldispersion=gd3bj scf=xqc pop=npa geom=check

CID_84649554_JID_1291_Energie_neutraal

0 1

--Link1--
%chk=JID_1291.chk
%mem=8GB
%nprocshared=4
# B3LYP/6-311++G(d,p) empiricaldispersion=gd3bj scf=xqc pop=npa geom=check

CID_84649554_JID_1291_Energie_kation

1 2

--Link1--
%chk=JID_1291.chk
%mem=8GB
%nprocshared=4
# B3LYP/6-311++G(d,p) empiricaldispersion=gd3bj scf=xqc pop=npa geom=check

CID_84649554_JID_1291_Energie_anion

-1 2
