%chk=JID_7795.chk
%mem=8GB
%nprocshared=4
# opt freq B3LYP/6-31G(d) empiricaldispersion=gd3bj scf=xqc

CID_80651820_JID_7795_neutraal

0 1
C          0.99988       -0.08491       -0.05282
C          0.28079        0.55401        1.07174
N         -1.01828        0.50831        1.29046
N         -1.28780        1.23605        2.42488
C         -0.14915        1.71399        2.86948
N          0.87370        1.30365        2.06109
C          2.27688        1.60438        2.18420
S          0.03810        2.72340        4.25746
C          0.18007        4.26537        3.38147
N          1.43081        4.76135        3.23423
C          1.54875        5.94599        2.58938
C          0.48097        6.65665        2.05043
C         -0.79551        6.11595        2.21491
C         -0.95081        4.90740        2.89054
C          0.70223        7.96735        1.34721
N          0.97727        9.03117        2.30964
C          1.16463       10.30990        1.63877
H          1.58537        0.65259       -0.61030
H          0.29165       -0.54730       -0.74753
H          1.67279       -0.86659        0.31241
H          2.47229        2.54800        1.66941
H          2.55358        1.67410        3.23832
H          2.86437        0.80427        1.72748
H          2.56423        6.32941        2.51922
H         -1.67195        6.62673        1.82435
H         -1.93834        4.47501        3.02124
H          1.54195        7.85293        0.64998
H         -0.18065        8.21298        0.74357
H          0.19362        9.10382        2.95881
H          0.27028       10.60669        1.08122
H          1.36930       11.08538        2.38340
H          2.01891       10.27638        0.95497

--Link1--
%chk=JID_7795.chk
%mem=8GB
%nprocshared=4
# B3LYP/6-311++G(d,p) empiricaldispersion=gd3bj scf=xqc pop=npa geom=check

CID_80651820_JID_7795_Energie_neutraal

0 1

--Link1--
%chk=JID_7795.chk
%mem=8GB
%nprocshared=4
# B3LYP/6-311++G(d,p) empiricaldispersion=gd3bj scf=xqc pop=npa geom=check

CID_80651820_JID_7795_Energie_kation

1 2

--Link1--
%chk=JID_7795.chk
%mem=8GB
%nprocshared=4
# B3LYP/6-311++G(d,p) empiricaldispersion=gd3bj scf=xqc pop=npa geom=check

CID_80651820_JID_7795_Energie_anion

-1 2
