%chk=JID_4327.chk
%mem=8GB
%nprocshared=4
# opt freq B3LYP/6-31G(d) empiricaldispersion=gd3bj scf=xqc

CID_63012851_JID_4327_neutraal

0 1
C          0.95239        0.08739        0.00980
C          0.40497       -0.64795        1.22869
C          0.99319       -0.22829        2.58965
C          0.71020        1.17557        3.06615
C          1.51982        2.24728        2.66644
C          1.23902        3.54494        3.09737
C          0.15218        3.78326        3.93678
C         -0.65325        2.72414        4.34971
C         -0.37462        1.42660        3.91887
N         -1.05568       -0.77747        1.24524
C         -1.90624        0.16440        1.07080
N         -1.70620        1.49287        0.87625
N         -3.25551       -0.10958        1.07465
O         -3.53002       -1.48565        0.98318
H          0.78669        1.16553        0.03656
H          0.49387       -0.29444       -0.90894
H          2.03436       -0.06684       -0.06870
H          0.75350       -1.68183        1.09104
H          0.63999       -0.93100        3.35700
H          2.08304       -0.36441        2.56142
H          2.37696        2.07755        2.01823
H          1.87395        4.37005        2.78428
H         -0.06069        4.79326        4.27761
H         -1.49574        2.90585        5.01219
H         -1.01463        0.60749        4.24329
H         -2.38754        2.05995        1.36877
H         -0.78115        1.80311        1.14854
H         -3.77462        0.42974        0.38693
H         -2.66149       -1.88898        1.21244

--Link1--
%chk=JID_4327.chk
%mem=8GB
%nprocshared=4
# B3LYP/6-311++G(d,p) empiricaldispersion=gd3bj scf=xqc pop=npa geom=check

CID_63012851_JID_4327_Energie_neutraal

0 1

--Link1--
%chk=JID_4327.chk
%mem=8GB
%nprocshared=4
# B3LYP/6-311++G(d,p) empiricaldispersion=gd3bj scf=xqc pop=npa geom=check

CID_63012851_JID_4327_Energie_kation

1 2

--Link1--
%chk=JID_4327.chk
%mem=8GB
%nprocshared=4
# B3LYP/6-311++G(d,p) empiricaldispersion=gd3bj scf=xqc pop=npa geom=check

CID_63012851_JID_4327_Energie_anion

-1 2
