%chk=JID_9828.chk
%mem=8GB
%nprocshared=4
# opt freq B3LYP/6-31G(d) empiricaldispersion=gd3bj scf=xqc

CID_115279995_JID_9828_neutraal

0 1
C          0.90153       -0.00400       -0.01694
C          1.10149        1.37827        0.59948
C          1.42037        2.39885       -0.52191
O          0.56864        3.14966       -1.00400
N          2.69090        2.47753       -1.02007
C          3.88089        1.76675       -0.58793
C          5.16388        2.47000       -1.02916
C          5.37409        3.80296       -0.31696
O          5.54269        3.56511        1.07928
C          5.54437        4.78180        1.81682
N         -0.14348        1.78488        1.29642
C         -0.11799        1.46251        2.73660
C          0.82366        2.38841        3.51503
O          1.28778        3.41859        3.01648
N          1.15350        2.11705        4.80889
C          0.92615        0.95467        5.68743
C          1.75289       -0.25078        5.21758
C          1.41371        1.34466        7.09922
C         -0.55943        0.58313        5.79792
H          0.08335       -0.00008       -0.74665
H          0.67119       -0.75197        0.74912
H          1.80049       -0.33775       -0.54401
H          1.94065        1.36477        1.29993
H          2.76038        3.13135       -1.79069
H          3.86474        1.63551        0.49702
H          3.83819        0.77221       -1.04367
H          6.00926        1.80865       -0.80385
H          5.14783        2.63458       -2.11266
H          6.27851        4.28607       -0.70387
H          4.52232        4.47071       -0.49017
H          6.34864        5.43878        1.47164
H          4.57796        5.28652        1.72152
H          5.71172        4.54598        2.87100
H         -0.21471        2.80698        1.21000
H         -1.12757        1.62156        3.12832
H          0.14854        0.41468        2.87559
H          1.80337        2.81711        5.15095
H          1.65389       -1.09235        5.91273
H          1.44540       -0.60604        4.23089
H          2.81673        0.00516        5.15028
H          0.86119        2.21141        7.48088
H          1.28392        0.52192        7.81142
H          2.47640        1.61474        7.09134
H         -1.17190        1.46551        6.01522
H         -0.94400        0.12711        4.88250
H         -0.72462       -0.14573        6.60011

--Link1--
%chk=JID_9828.chk
%mem=8GB
%nprocshared=4
# B3LYP/6-311++G(d,p) empiricaldispersion=gd3bj scf=xqc pop=npa geom=check

CID_115279995_JID_9828_Energie_neutraal

0 1

--Link1--
%chk=JID_9828.chk
%mem=8GB
%nprocshared=4
# B3LYP/6-311++G(d,p) empiricaldispersion=gd3bj scf=xqc pop=npa geom=check

CID_115279995_JID_9828_Energie_kation

1 2

--Link1--
%chk=JID_9828.chk
%mem=8GB
%nprocshared=4
# B3LYP/6-311++G(d,p) empiricaldispersion=gd3bj scf=xqc pop=npa geom=check

CID_115279995_JID_9828_Energie_anion

-1 2
