%chk=JID_8411.chk
%mem=8GB
%nprocshared=4
# opt freq B3LYP/6-31G(d) empiricaldispersion=gd3bj scf=xqc

CID_83228523_JID_8411_neutraal

0 1
C          1.26600       -0.09700        0.26800
C          0.40158        0.93768       -0.43324
C         -0.99759        0.64045        0.08882
C         -1.04375       -0.88814        0.21587
C          0.41334       -1.35583        0.32472
O         -1.69862       -1.63788       -0.81523
N         -1.77372       -0.92653       -2.08467
C         -0.84853       -1.57015       -3.02773
C         -0.86145       -3.08208       -3.08643
C         -2.04378       -3.82863       -3.04497
C         -2.00406       -5.22376       -3.12555
C         -0.79083       -5.90049       -3.27046
C          0.38972       -5.16466       -3.34047
C          0.35181       -3.76850       -3.25112
O         -0.90667       -7.26073       -3.34215
C          0.28828       -8.04364       -3.44050
C          0.80188       -8.11264       -4.81832
N          1.23628       -8.17469       -5.89332
H          1.49637        0.24037        1.28584
H          2.21523       -0.26362       -0.24982
H          0.71800        1.95995       -0.20542
H          0.45012        0.80536       -1.51878
H         -1.77967        1.07356       -0.54004
H         -1.09493        1.08546        1.08756
H         -1.57856       -1.14359        1.13802
H          0.68395       -2.04123       -0.48476
H          0.58665       -1.88930        1.26593
H         -2.73369       -1.12013       -2.36680
H         -1.06443       -1.19018       -4.03338
H          0.16282       -1.22376       -2.78576
H         -3.00649       -3.33703       -2.93574
H         -2.93339       -5.78637       -3.07628
H          1.36138       -5.62730       -3.47348
H          1.28716       -3.21450       -3.31285
H          1.04942       -7.70618       -2.72763
H          0.01533       -9.05636       -3.12250

--Link1--
%chk=JID_8411.chk
%mem=8GB
%nprocshared=4
# B3LYP/6-311++G(d,p) empiricaldispersion=gd3bj scf=xqc pop=npa geom=check

CID_83228523_JID_8411_Energie_neutraal

0 1

--Link1--
%chk=JID_8411.chk
%mem=8GB
%nprocshared=4
# B3LYP/6-311++G(d,p) empiricaldispersion=gd3bj scf=xqc pop=npa geom=check

CID_83228523_JID_8411_Energie_kation

1 2

--Link1--
%chk=JID_8411.chk
%mem=8GB
%nprocshared=4
# B3LYP/6-311++G(d,p) empiricaldispersion=gd3bj scf=xqc pop=npa geom=check

CID_83228523_JID_8411_Energie_anion

-1 2
