%chk=JID_10279.chk
%mem=8GB
%nprocshared=4
# opt freq B3LYP/6-31G(d) empiricaldispersion=gd3bj scf=xqc

CID_106757044_JID_10279_neutraal

0 1
C          0.98973       -0.07136       -0.06930
C          1.21729        0.26056       -1.53425
O          1.62654       -0.90604       -2.26735
C          2.94793       -1.21645       -2.16767
O          3.77608       -0.60024       -1.51446
C          3.24842       -2.48767       -2.88043
C          4.23909       -3.28835       -2.27964
C          4.63200       -4.48573       -2.86546
C          4.05534       -4.87451       -4.06608
C          3.08018       -4.07391       -4.67585
C          2.61992       -2.88175       -4.09045
N          1.71765       -2.02729       -4.74129
C          0.78168       -2.46066       -5.77901
C         -0.56114       -2.83054       -5.14117
C          0.58988       -1.45792       -6.88259
C          0.53099       -1.67528       -8.24902
C          0.32778       -0.41143       -8.82095
N          0.25529        0.54907       -7.90179
N          0.44169       -0.09935       -6.73271
C          0.46728        0.68376       -5.52025
H          0.27262       -0.89273        0.03057
H          0.60627        0.79998        0.46910
H          1.91619       -0.39752        0.41298
H          0.27731        0.60043       -1.98158
H          1.94259        1.07335       -1.65596
H          4.71256       -2.96872       -1.35269
H          5.39889       -5.09853       -2.39925
H          4.37690       -5.79424       -4.54951
H          2.71314       -4.41365       -5.63846
H          1.26603       -1.42470       -4.05216
H          1.14558       -3.36336       -6.27818
H         -1.02154       -1.97654       -4.63294
H         -1.27044       -3.18773       -5.89645
H         -0.43303       -3.62525       -4.39795
H          0.62356       -2.62295       -8.76024
H          0.22644       -0.14897       -9.86601
H          1.49840        0.73600       -5.16390
H          0.10102        1.69251       -5.73136
H         -0.18533        0.21867       -4.77955

--Link1--
%chk=JID_10279.chk
%mem=8GB
%nprocshared=4
# B3LYP/6-311++G(d,p) empiricaldispersion=gd3bj scf=xqc pop=npa geom=check

CID_106757044_JID_10279_Energie_neutraal

0 1

--Link1--
%chk=JID_10279.chk
%mem=8GB
%nprocshared=4
# B3LYP/6-311++G(d,p) empiricaldispersion=gd3bj scf=xqc pop=npa geom=check

CID_106757044_JID_10279_Energie_kation

1 2

--Link1--
%chk=JID_10279.chk
%mem=8GB
%nprocshared=4
# B3LYP/6-311++G(d,p) empiricaldispersion=gd3bj scf=xqc pop=npa geom=check

CID_106757044_JID_10279_Energie_anion

-1 2
