%chk=JID_7704.chk
%mem=8GB
%nprocshared=4
# opt freq B3LYP/6-31G(d) empiricaldispersion=gd3bj scf=xqc

CID_154353236_JID_7704_neutraal

0 1
C          1.03646       -0.06737        0.06428
C         -0.13187        0.90514        0.03845
C          0.15312        2.19410       -0.74087
C          0.45196        1.99856       -2.23568
C         -0.68055        1.32885       -3.01128
C          0.94163        3.28327       -2.90818
O          2.09360        3.34945       -3.35237
N          0.13267        4.38124       -3.06013
N         -1.13758        4.55853       -2.48561
C         -1.88979        5.63403       -3.16053
C         -2.58887        5.12444       -4.44429
N         -3.27761        3.82964       -4.24341
C         -3.61473        3.19098       -5.53691
C         -4.79206        3.85137       -6.27291
O         -5.96238        3.89207       -5.44802
C         -5.69973        4.58887       -4.22481
C         -4.52686        3.95491       -3.45605
H          1.23545       -0.48357       -0.92741
H          0.81249       -0.90455        0.73333
H          1.94693        0.42063        0.42599
H         -1.01728        0.40305       -0.36703
H         -0.37689        1.17803        1.07224
H         -0.71320        2.85049       -0.60862
H          0.99745        2.71565       -0.27144
H          1.31462        1.32199       -2.31270
H         -1.66600        1.68380       -2.69830
H         -0.58299        1.49720       -4.08894
H         -0.66735        0.24632       -2.84304
H          0.62443        5.18430       -3.44605
H         -1.69779        3.71368       -2.65904
H         -2.64821        5.99762       -2.45837
H         -1.24690        6.49259       -3.38924
H         -3.26087        5.90004       -4.82756
H         -1.80271        4.98962       -5.19902
H         -3.88087        2.14739       -5.32379
H         -2.73406        3.15104       -6.18854
H         -4.54593        4.86761       -6.60113
H         -5.04032        3.26861       -7.16579
H         -6.60804        4.53511       -3.61594
H         -5.51644        5.64633       -4.44522
H         -4.82133        2.93925       -3.16040
H         -4.35387        4.49764       -2.52109

--Link1--
%chk=JID_7704.chk
%mem=8GB
%nprocshared=4
# B3LYP/6-311++G(d,p) empiricaldispersion=gd3bj scf=xqc pop=npa geom=check

CID_154353236_JID_7704_Energie_neutraal

0 1

--Link1--
%chk=JID_7704.chk
%mem=8GB
%nprocshared=4
# B3LYP/6-311++G(d,p) empiricaldispersion=gd3bj scf=xqc pop=npa geom=check

CID_154353236_JID_7704_Energie_kation

1 2

--Link1--
%chk=JID_7704.chk
%mem=8GB
%nprocshared=4
# B3LYP/6-311++G(d,p) empiricaldispersion=gd3bj scf=xqc pop=npa geom=check

CID_154353236_JID_7704_Energie_anion

-1 2
