%chk=JID_1557.chk
%mem=8GB
%nprocshared=4
# opt freq B3LYP/6-31G(d) empiricaldispersion=gd3bj scf=xqc

CID_20494710_JID_1557_neutraal

0 1
C          0.95531       -0.05984        0.06650
C          0.13182       -1.34487       -0.02044
C          0.70220       -2.46369        0.89410
N          0.47408       -2.19434        2.32736
C          1.01961       -3.27637        3.19028
C          2.53592       -3.13361        3.36113
C          0.34099       -3.24538        4.59328
N         -1.10945       -3.54390        4.54618
O         -1.53792       -3.44900        5.93064
O         -1.76048       -2.45234        3.83825
N         -1.26290       -1.02815        0.31937
H          0.92577        0.38446        1.06723
H          0.58145        0.68921       -0.64080
H          2.00332       -0.25609       -0.18409
H          0.16059       -1.70132       -1.05676
H          0.20289       -3.40457        0.63066
H          1.76991       -2.58389        0.68104
H          0.93464       -1.31484        2.57507
H          0.80231       -4.25368        2.73963
H          2.79963       -2.16658        3.80367
H          2.92414       -3.91877        4.01924
H          3.06171       -3.22435        2.40581
H          0.82017       -4.00449        5.22471
H          0.51427       -2.27108        5.07086
H         -2.22679       -4.13726        5.94457
H         -1.14934       -2.29028        3.08479
H         -1.81506       -1.88533        0.27460
H         -1.29436       -0.75719        1.30369

--Link1--
%chk=JID_1557.chk
%mem=8GB
%nprocshared=4
# B3LYP/6-311++G(d,p) empiricaldispersion=gd3bj scf=xqc pop=npa geom=check

CID_20494710_JID_1557_Energie_neutraal

0 1

--Link1--
%chk=JID_1557.chk
%mem=8GB
%nprocshared=4
# B3LYP/6-311++G(d,p) empiricaldispersion=gd3bj scf=xqc pop=npa geom=check

CID_20494710_JID_1557_Energie_kation

1 2

--Link1--
%chk=JID_1557.chk
%mem=8GB
%nprocshared=4
# B3LYP/6-311++G(d,p) empiricaldispersion=gd3bj scf=xqc pop=npa geom=check

CID_20494710_JID_1557_Energie_anion

-1 2
