%chk=JID_3756.chk
%mem=8GB
%nprocshared=4
# opt freq B3LYP/6-31G(d) empiricaldispersion=gd3bj scf=xqc

CID_65678331_JID_3756_neutraal

0 1
C          1.12200        0.98800       -0.13500
C         -0.33793        1.18464        0.28284
C         -1.27560        0.30387       -0.55759
C         -0.90350       -1.18470       -0.39776
C          0.57738       -1.43192       -0.46846
C          1.48571       -0.45095       -0.36276
N         -2.68586        0.59062       -0.27334
C         -3.37114        0.13333        0.91281
C         -4.78978        0.63164        0.71534
C         -4.61689        1.95607       -0.02688
C         -3.31482        1.72398       -0.80978
O         -2.86487        2.44219       -1.68967
N         -4.46705        3.09483        0.89090
H          1.32016        1.54430       -1.05891
H          1.77330        1.40920        0.63922
H         -0.60239        2.24435        0.18407
H         -0.45151        0.93655        1.34648
H         -1.11763        0.57619       -1.61109
H         -1.25254       -1.57932        0.56301
H         -1.40768       -1.76456       -1.18003
H          0.90610       -2.45782       -0.61572
H          2.54422       -0.68762       -0.44385
H         -3.34115       -0.95593        0.99146
H         -2.90315        0.58658        1.79291
H         -5.34346        0.71383        1.65590
H         -5.33957       -0.06939        0.07338
H         -5.44491        2.13067       -0.71988
H         -5.25513        3.13217        1.53307
H         -3.62306        2.98936        1.45091

--Link1--
%chk=JID_3756.chk
%mem=8GB
%nprocshared=4
# B3LYP/6-311++G(d,p) empiricaldispersion=gd3bj scf=xqc pop=npa geom=check

CID_65678331_JID_3756_Energie_neutraal

0 1

--Link1--
%chk=JID_3756.chk
%mem=8GB
%nprocshared=4
# B3LYP/6-311++G(d,p) empiricaldispersion=gd3bj scf=xqc pop=npa geom=check

CID_65678331_JID_3756_Energie_kation

1 2

--Link1--
%chk=JID_3756.chk
%mem=8GB
%nprocshared=4
# B3LYP/6-311++G(d,p) empiricaldispersion=gd3bj scf=xqc pop=npa geom=check

CID_65678331_JID_3756_Energie_anion

-1 2
