%chk=JID_2667.chk
%mem=8GB
%nprocshared=4
# opt freq B3LYP/6-31G(d) empiricaldispersion=gd3bj scf=xqc

CID_106824561_JID_2667_neutraal

0 1
C          0.92196        0.06247       -0.00266
C          0.74648       -1.43052       -0.19769
O          1.29724       -2.15837        0.89669
C          2.72499       -2.36853        0.89279
C          3.56838       -1.36186        1.71423
C          4.45587       -2.55317        2.15125
C          3.22963       -3.45837        1.87045
C          4.97720       -2.50594        3.58089
N          5.67318       -3.75567        3.89404
C          6.28884       -3.73095        5.22311
C          7.43682       -4.66200        5.49448
C          7.67934       -3.18511        5.38084
H          0.52683        0.37536        0.96920
H          0.40660        0.61866       -0.79096
H          1.98028        0.33884       -0.02384
H         -0.32103       -1.66936       -0.23949
H          1.19501       -1.76257       -1.14015
H          3.11252       -2.52815       -0.12263
H          4.08217       -0.59221        1.13166
H          3.01315       -0.87796        2.52658
H          5.27090       -2.72608        1.43201
H          2.57103       -3.62154        2.73181
H          3.46051       -4.42569        1.41555
H          5.67026       -1.66198        3.67916
H          4.15527       -2.34455        4.28881
H          5.01525       -4.53298        3.82789
H          5.60010       -3.56911        6.05038
H          7.50221       -5.11398        6.47676
H          7.79225       -5.29379        4.68869
H          8.19322       -2.82344        4.49781
H          7.90693       -2.63475        6.28559

--Link1--
%chk=JID_2667.chk
%mem=8GB
%nprocshared=4
# B3LYP/6-311++G(d,p) empiricaldispersion=gd3bj scf=xqc pop=npa geom=check

CID_106824561_JID_2667_Energie_neutraal

0 1

--Link1--
%chk=JID_2667.chk
%mem=8GB
%nprocshared=4
# B3LYP/6-311++G(d,p) empiricaldispersion=gd3bj scf=xqc pop=npa geom=check

CID_106824561_JID_2667_Energie_kation

1 2

--Link1--
%chk=JID_2667.chk
%mem=8GB
%nprocshared=4
# B3LYP/6-311++G(d,p) empiricaldispersion=gd3bj scf=xqc pop=npa geom=check

CID_106824561_JID_2667_Energie_anion

-1 2
