%chk=JID_6436.chk
%mem=8GB
%nprocshared=4
# opt freq B3LYP/6-31G(d) empiricaldispersion=gd3bj scf=xqc

CID_104461028_JID_6436_neutraal

0 1
C         -0.91800        1.37000        0.00000
C         -2.06664        0.37600        0.17285
S         -2.05966       -0.89873       -1.13399
C         -0.43882       -1.64480       -0.76440
C          0.63180       -0.63293       -0.47944
C          0.40931        0.68130       -0.10865
S          1.85129        1.52998        0.20896
C          2.82132        0.19244       -0.23659
C          2.03699       -0.90826       -0.53331
C          4.32720        0.27028       -0.20277
N          5.04869        0.68257       -1.41445
C          4.47575        0.22423       -2.69387
C          4.82870        1.61562       -3.27920
C          4.82011        2.08478       -1.80387
C          3.78829        2.22233       -4.19606
O          4.15491        3.55978       -4.51687
H         -1.08149        1.97386       -0.90197
H         -0.92258        2.06005        0.85263
H         -3.02367        0.90606        0.13319
H         -2.00955       -0.12447        1.14614
H         -0.55386       -2.30615        0.10131
H         -0.15203       -2.26513       -1.61991
H          2.45796       -1.87116       -0.80069
H          4.64610        0.90978        0.63105
H          4.69754       -0.73062        0.05748
H          5.00856       -0.61486       -3.15216
H          3.40449        0.00474       -2.72474
H          5.83420        1.63519       -3.72388
H          3.87899        2.54362       -1.49073
H          5.63474        2.76520       -1.53607
H          3.73021        1.66057       -5.13330
H          2.78944        2.23231       -3.74657
H          4.05912        4.09368       -3.70989

--Link1--
%chk=JID_6436.chk
%mem=8GB
%nprocshared=4
# B3LYP/6-311++G(d,p) empiricaldispersion=gd3bj scf=xqc pop=npa geom=check

CID_104461028_JID_6436_Energie_neutraal

0 1

--Link1--
%chk=JID_6436.chk
%mem=8GB
%nprocshared=4
# B3LYP/6-311++G(d,p) empiricaldispersion=gd3bj scf=xqc pop=npa geom=check

CID_104461028_JID_6436_Energie_kation

1 2

--Link1--
%chk=JID_6436.chk
%mem=8GB
%nprocshared=4
# B3LYP/6-311++G(d,p) empiricaldispersion=gd3bj scf=xqc pop=npa geom=check

CID_104461028_JID_6436_Energie_anion

-1 2
