%chk=JID_9689.chk
%mem=8GB
%nprocshared=4
# opt freq B3LYP/6-31G(d) empiricaldispersion=gd3bj scf=xqc

CID_118117854_JID_9689_neutraal

0 1
C          1.73900        0.07900       -0.43900
C          1.10702        1.44566       -0.12350
N         -0.34213        1.35946       -0.28619
C         -1.04031        0.22934        0.06512
O         -2.26426        0.25705        0.15741
C         -0.21004       -1.05706        0.23243
O          1.19403       -0.91760        0.43221
C          1.44458        1.93774        1.30031
C          2.89979        2.29691        1.48983
C          3.74085        1.47106        2.25177
C          5.09468        1.79981        2.43333
C          5.60768        2.96086        1.84083
C          4.77291        3.78351        1.08149
C          3.42825        3.45608        0.90866
N          5.92119        0.95384        3.21808
C          7.25725        1.09005        3.52373
C          7.54887        0.00514        4.31282
N          6.43202       -0.75370        4.47302
N          5.44479       -0.17294        3.80481
H          2.82404        0.09608       -0.30120
H          1.54630       -0.21370       -1.47880
H          1.45262        2.17773       -0.86243
H         -0.90026        2.20218       -0.35448
H         -0.60622       -1.59972        1.09652
H         -0.37120       -1.67268       -0.65973
H          0.84790        2.83199        1.52856
H          1.13698        1.19599        2.04887
H          3.32729        0.56793        2.70229
H          6.64605        3.25769        1.95172
H          5.17143        4.68776        0.62668
H          2.79415        4.11794        0.32218
H          7.86636        1.90764        3.17582
H          8.49027       -0.26646        4.76833

--Link1--
%chk=JID_9689.chk
%mem=8GB
%nprocshared=4
# B3LYP/6-311++G(d,p) empiricaldispersion=gd3bj scf=xqc pop=npa geom=check

CID_118117854_JID_9689_Energie_neutraal

0 1

--Link1--
%chk=JID_9689.chk
%mem=8GB
%nprocshared=4
# B3LYP/6-311++G(d,p) empiricaldispersion=gd3bj scf=xqc pop=npa geom=check

CID_118117854_JID_9689_Energie_kation

1 2

--Link1--
%chk=JID_9689.chk
%mem=8GB
%nprocshared=4
# B3LYP/6-311++G(d,p) empiricaldispersion=gd3bj scf=xqc pop=npa geom=check

CID_118117854_JID_9689_Energie_anion

-1 2
