%chk=JID_10506.chk
%mem=8GB
%nprocshared=4
# opt freq B3LYP/6-31G(d) empiricaldispersion=gd3bj scf=xqc

CID_104547635_JID_10506_neutraal

0 1
C          0.93604        0.06907       -0.03374
N          1.41001        0.62360        1.22551
C          0.61376        1.77076        1.68481
C         -0.84513        1.41645        2.00954
C         -1.57795        2.50188        2.76321
C         -1.71219        2.39265        4.15786
C         -2.37691        3.37669        4.89498
C         -2.91311        4.49165        4.25463
C         -2.78456        4.62476        2.87400
C         -2.12774        3.63268        2.13394
C         -1.99979        3.86201        0.68297
O         -1.06133        4.52351        0.25556
N         -2.95543        3.34551       -0.14867
C         -4.04949        2.45924        0.19004
C         -4.90319        2.08598       -1.02324
C         -4.14438        1.50614       -2.22004
C         -3.28605        0.28145       -1.95093
C         -2.32680        0.33138       -3.11632
C         -2.07904        1.81834       -3.26409
O         -3.25645        2.49056       -2.78495
H          0.86926        0.83797       -0.81031
H         -0.03772       -0.41820        0.07367
H          1.64490       -0.68815       -0.38319
H          1.41690       -0.10161        1.94091
H          1.10223        2.16587        2.58393
H          0.66330        2.57360        0.94065
H         -1.39209        1.17773        1.09158
H         -0.87207        0.49563        2.60791
H         -1.29161        1.53837        4.68537
H         -2.46688        3.27631        5.97417
H         -3.41902        5.26168        4.83136
H         -3.18373        5.50367        2.37297
H         -2.78590        3.52483       -1.13796
H         -3.64148        1.56270        0.66499
H         -4.67252        2.96138        0.93845
H         -5.67122        1.37237       -0.70248
H         -5.42241        2.99306       -1.35886
H         -4.87487        1.26873       -3.00455
H         -2.71732        0.37370       -1.02033
H         -3.86723       -0.64361       -1.90882
H         -1.40783       -0.23843       -2.95529
H         -2.81545       -0.05684       -4.01789
H         -1.23611        2.14364       -2.64530
H         -1.88527        2.11103       -4.29986

--Link1--
%chk=JID_10506.chk
%mem=8GB
%nprocshared=4
# B3LYP/6-311++G(d,p) empiricaldispersion=gd3bj scf=xqc pop=npa geom=check

CID_104547635_JID_10506_Energie_neutraal

0 1

--Link1--
%chk=JID_10506.chk
%mem=8GB
%nprocshared=4
# B3LYP/6-311++G(d,p) empiricaldispersion=gd3bj scf=xqc pop=npa geom=check

CID_104547635_JID_10506_Energie_kation

1 2

--Link1--
%chk=JID_10506.chk
%mem=8GB
%nprocshared=4
# B3LYP/6-311++G(d,p) empiricaldispersion=gd3bj scf=xqc pop=npa geom=check

CID_104547635_JID_10506_Energie_anion

-1 2
