%chk=JID_6643.chk
%mem=8GB
%nprocshared=4
# opt freq B3LYP/6-31G(d) empiricaldispersion=gd3bj scf=xqc

CID_107180036_JID_6643_neutraal

0 1
C          1.09275       -0.03646        0.00825
C          0.57627       -1.28840        0.70661
C          1.18865       -1.50586        2.09145
C          0.72169       -0.50389        3.08407
N          1.10835        0.74641        3.20693
C          0.35265        1.21744        4.24981
N         -0.46151        0.30754        4.80063
N         -0.21455       -0.77072        4.04135
C          0.43412        2.63620        4.73271
C          1.90383        3.10240        4.80122
C          2.03226        4.52168        5.34186
C          1.18484        5.50596        4.54818
C         -0.27487        5.06287        4.48895
C         -0.46807        3.62995        3.92408
C         -0.14941        3.62672        2.41268
C         -1.96053        3.26388        4.08866
H          0.77809        0.87392        0.52555
H          0.69930        0.01151       -1.01231
H          2.18571       -0.04186       -0.05118
H         -0.51736       -1.24102        0.77405
H          0.82032       -2.15479        0.08004
H          0.92710       -2.51337        2.43801
H          2.28268       -1.47164        2.02860
H         -0.71116       -1.63408        4.22760
H          0.06642        2.63843        5.77072
H          2.37450        3.05000        3.81151
H          2.47803        2.42365        5.44518
H          3.08264        4.83296        5.31358
H          1.72392        4.53956        6.39442
H          1.58931        5.61243        3.53515
H          1.24566        6.49648        5.01368
H         -0.84314        5.78673        3.89102
H         -0.69093        5.11169        5.50449
H          0.90899        3.81075        2.20812
H         -0.41527        2.67143        1.94792
H         -0.72287        4.40256        1.89191
H         -2.19583        2.29690        3.63176
H         -2.24189        3.21338        5.14646
H         -2.60345        4.01211        3.61057

--Link1--
%chk=JID_6643.chk
%mem=8GB
%nprocshared=4
# B3LYP/6-311++G(d,p) empiricaldispersion=gd3bj scf=xqc pop=npa geom=check

CID_107180036_JID_6643_Energie_neutraal

0 1

--Link1--
%chk=JID_6643.chk
%mem=8GB
%nprocshared=4
# B3LYP/6-311++G(d,p) empiricaldispersion=gd3bj scf=xqc pop=npa geom=check

CID_107180036_JID_6643_Energie_kation

1 2

--Link1--
%chk=JID_6643.chk
%mem=8GB
%nprocshared=4
# B3LYP/6-311++G(d,p) empiricaldispersion=gd3bj scf=xqc pop=npa geom=check

CID_107180036_JID_6643_Energie_anion

-1 2
