%chk=JID_5069.chk
%mem=8GB
%nprocshared=4
# opt freq B3LYP/6-31G(d) empiricaldispersion=gd3bj scf=xqc

CID_73750950_JID_5069_neutraal

0 1
C          0.95928       -0.00184        0.09132
N          1.53672       -1.04144       -0.75696
C          1.55025       -2.33132       -0.07313
C          0.90230       -1.10560       -2.08681
C         -0.58300       -1.50560       -2.13088
S         -1.21839       -1.56565       -3.83987
C         -1.38859        0.16875       -4.12869
N         -2.33718        0.89773       -3.61098
O         -3.24005        0.16567       -2.82863
C         -0.36416        0.81883       -5.00939
C         -0.16661        2.20383       -4.88943
C          0.78085        2.85944       -5.67923
C          1.53701        2.13965       -6.60103
C          1.34444        0.76641       -6.73742
C          0.39721        0.10714       -5.94812
H         -0.07184       -0.22281        0.38675
H          0.97408        0.96790       -0.41828
H          1.55371        0.11617        1.00434
H          0.54879       -2.66417        0.21987
H          2.00054       -3.10253       -0.70779
H          2.16461       -2.27440        0.83252
H          1.03781       -0.12616       -2.56156
H          1.48287       -1.80669       -2.70150
H         -0.71536       -2.50943       -1.71577
H         -1.19582       -0.82348       -1.53581
H         -3.92185        0.82923       -2.61684
H         -0.74578        2.78396       -4.17378
H          0.92675        3.93163       -5.57375
H          2.27394        2.64957       -7.21671
H          1.92962        0.20596       -7.46273
H          0.26269       -0.96089       -6.09592

--Link1--
%chk=JID_5069.chk
%mem=8GB
%nprocshared=4
# B3LYP/6-311++G(d,p) empiricaldispersion=gd3bj scf=xqc pop=npa geom=check

CID_73750950_JID_5069_Energie_neutraal

0 1

--Link1--
%chk=JID_5069.chk
%mem=8GB
%nprocshared=4
# B3LYP/6-311++G(d,p) empiricaldispersion=gd3bj scf=xqc pop=npa geom=check

CID_73750950_JID_5069_Energie_kation

1 2

--Link1--
%chk=JID_5069.chk
%mem=8GB
%nprocshared=4
# B3LYP/6-311++G(d,p) empiricaldispersion=gd3bj scf=xqc pop=npa geom=check

CID_73750950_JID_5069_Energie_anion

-1 2
