%chk=JID_2019.chk
%mem=8GB
%nprocshared=4
# opt=(cartesian,calcfc) freq B3LYP/6-31G(d) empiricaldispersion=gd3bj scf=xqc

CID_61582910_JID_2019_neutraal

0 1
6	1.471470	 -2.014451	 -0.492585
7	0.895849	 -1.209356	 0.576245
6	1.766077	 -0.164936	 1.099119
6	2.314390	 0.837537	 0.096997
6	3.712387	 1.290320	 0.189337
8	3.327168	 0.325345	 -0.802347
6	-0.532414	 -0.966184	 0.482767
6	-1.043042	 -0.022287	 -0.628560
6	-2.557863	 -0.127287	 -0.805512
8	-3.139629	 0.340159	 0.400292
6	-4.547086	 0.395335	 0.340819
8	-0.703772	 1.337961	 -0.368067
1	2.491983	 -2.298584	 -0.217762
1	1.536461	 -1.512620	 -1.472261
1	0.876503	 -2.927569	 -0.615303
1	1.223073	 0.378779	 1.878683
1	2.624692	 -0.658646	 1.577495
1	1.584256	 1.491439	 -0.379445
1	3.983788	 2.273654	 -0.205493
1	4.355228	 0.902301	 0.980143
1	-1.018932	 -1.942798	 0.343519
1	-0.887511	 -0.574529	 1.441819
1	-0.561901	 -0.278852	 -1.578699
1	-2.888729	 0.499220	 -1.646992
1	-2.869364	 -1.163877	 -1.009492
1	-4.882702	 1.070420	 -0.461626
1	-4.977085	 -0.599907	 0.173533
1	-4.901360	 0.781024	 1.309333
1	-1.332992	 1.630040	 0.315514

--Link1--
%chk=JID_2019.chk
%mem=8GB
%nprocshared=4
# B3LYP/6-311++G(d,p) empiricaldispersion=gd3bj scf=xqc pop=npa geom=check

CID_61582910_JID_2019_Energie_neutraal

0 1

--Link1--
%chk=JID_2019.chk
%mem=8GB
%nprocshared=4
# B3LYP/6-311++G(d,p) empiricaldispersion=gd3bj scf=xqc pop=npa geom=check

CID_61582910_JID_2019_Energie_kation

1 2

--Link1--
%chk=JID_2019.chk
%mem=8GB
%nprocshared=4
# B3LYP/6-311++G(d,p) empiricaldispersion=gd3bj scf=xqc pop=npa geom=check

CID_61582910_JID_2019_Energie_anion

-1 2
