%chk=JID_10831.chk
%mem=8GB
%nprocshared=4
# opt freq B3LYP/6-31G(d) empiricaldispersion=gd3bj scf=xqc

CID_64106828_JID_10831_neutraal

0 1
C          1.01859        0.04957        0.08483
C          0.64154       -1.41513       -0.16068
C          1.41761       -2.31195        0.80771
C         -0.87208       -1.65670        0.00253
N         -1.64469       -0.99962       -1.05338
C         -3.08388       -1.02256       -0.79329
C         -3.56851        0.04771        0.19574
C         -3.39653        1.49640       -0.27728
C         -4.35642        1.93653       -1.39477
N         -5.71905        2.17785       -0.91682
C         -5.92959        3.37439       -0.22908
O         -5.06714        4.23299       -0.04669
C         -7.27817        3.61849        0.32797
C         -8.26839        2.73521        0.19131
C         -8.03951        1.49413       -0.53922
C         -9.09380        0.57921       -0.67759
C         -8.90704       -0.60746       -1.38038
C         -7.67009       -0.87856       -1.95234
C         -6.61535        0.03119       -1.81621
C         -6.77549        1.22550       -1.09967
H          0.68584        0.38461        1.07319
H          0.57785        0.71253       -0.66545
H          2.10482        0.18243        0.03310
H          0.94221       -1.68553       -1.18128
H          1.16071       -2.08971        1.84903
H          1.19665       -3.36828        0.62131
H          2.49724       -2.17249        0.68726
H         -1.07268       -2.73415       -0.04059
H         -1.17827       -1.30608        0.99479
H         -1.32343       -0.04562       -1.19152
H         -3.58740       -0.88701       -1.75420
H         -3.38735       -2.01479       -0.43721
H         -4.62138       -0.13965        0.43326
H         -3.03143       -0.06709        1.14481
H         -3.52714        2.15044        0.59355
H         -2.36787        1.65925       -0.61632
H         -3.98180        2.89128       -1.78856
H         -4.32839        1.26087       -2.25112
H         -7.41001        4.55282        0.85949
H         -9.24809        2.93116        0.61182
H        -10.06791        0.78526       -0.24025
H         -9.72555       -1.31468       -1.48634
H         -7.52064       -1.79975       -2.51094
H         -5.68270       -0.23323       -2.29729

--Link1--
%chk=JID_10831.chk
%mem=8GB
%nprocshared=4
# B3LYP/6-311++G(d,p) empiricaldispersion=gd3bj scf=xqc pop=npa geom=check

CID_64106828_JID_10831_Energie_neutraal

0 1

--Link1--
%chk=JID_10831.chk
%mem=8GB
%nprocshared=4
# B3LYP/6-311++G(d,p) empiricaldispersion=gd3bj scf=xqc pop=npa geom=check

CID_64106828_JID_10831_Energie_kation

1 2

--Link1--
%chk=JID_10831.chk
%mem=8GB
%nprocshared=4
# B3LYP/6-311++G(d,p) empiricaldispersion=gd3bj scf=xqc pop=npa geom=check

CID_64106828_JID_10831_Energie_anion

-1 2
