%chk=JID_4303.chk
%mem=8GB
%nprocshared=4
# opt freq B3LYP/6-31G(d) empiricaldispersion=gd3bj scf=xqc

CID_103134696_JID_4303_neutraal

0 1
C          1.04249        0.05639        0.07082
N          0.40772       -0.26665       -1.18790
C         -1.02353       -0.57136       -1.11269
C         -2.03153        0.61776       -1.03181
C         -1.81091        1.79126       -2.00048
C         -0.95272        2.84663       -1.33258
S         -1.54009        2.89678        0.37138
C         -2.18708        1.20175        0.37693
C         -1.32275       -1.48899       -2.29369
N         -1.64892       -1.01478       -3.50759
N         -1.81345       -2.11714       -4.25926
C         -1.61547       -3.27839       -3.57594
C         -1.28803       -2.90817       -2.29414
C         -2.16955       -1.97870       -5.65009
H          0.88087       -0.73186        0.81316
H          0.70501        1.00618        0.48486
H          2.12360        0.13582       -0.08178
H          0.58473        0.42526       -1.91147
H         -1.19605       -1.19986       -0.22633
H         -3.01014        0.18270       -1.28774
H         -2.78706        2.23087       -2.24953
H         -1.36475        1.48806       -2.95146
H          0.10795        2.58528       -1.34842
H         -1.06992        3.82298       -1.81122
H         -3.24685        1.25605        0.64821
H         -1.68406        0.60937        1.14626
H         -1.70905       -4.24703       -4.04562
H         -1.04370       -3.56091       -1.46842
H         -3.13280       -1.46583       -5.70933
H         -1.39165       -1.39557       -6.14924
H         -2.24495       -2.96839       -6.10719

--Link1--
%chk=JID_4303.chk
%mem=8GB
%nprocshared=4
# B3LYP/6-311++G(d,p) empiricaldispersion=gd3bj scf=xqc pop=npa geom=check

CID_103134696_JID_4303_Energie_neutraal

0 1

--Link1--
%chk=JID_4303.chk
%mem=8GB
%nprocshared=4
# B3LYP/6-311++G(d,p) empiricaldispersion=gd3bj scf=xqc pop=npa geom=check

CID_103134696_JID_4303_Energie_kation

1 2

--Link1--
%chk=JID_4303.chk
%mem=8GB
%nprocshared=4
# B3LYP/6-311++G(d,p) empiricaldispersion=gd3bj scf=xqc pop=npa geom=check

CID_103134696_JID_4303_Energie_anion

-1 2
