%chk=JID_7841.chk
%mem=8GB
%nprocshared=4
# opt freq B3LYP/6-31G(d) empiricaldispersion=gd3bj scf=xqc

CID_79960912_JID_7841_neutraal

0 1
C          0.99686        0.09686        0.02467
C          0.97002       -0.41430       -1.40792
N          2.03387       -1.36423       -1.68324
C          3.35189       -0.99974       -1.82336
O          3.77282        0.14437       -1.75582
N          4.11915       -2.10628       -2.06647
C          3.31674       -3.12309       -2.07872
C          1.83758       -2.79390       -1.79941
C          1.35227       -3.44983       -0.48930
C          0.82479       -4.88057       -0.69347
C         -0.32802       -4.92871       -1.70615
C          0.01648       -4.13357       -2.92759
C          0.98103       -3.14265       -2.99185
C          1.03891       -2.57341       -4.30681
C          0.12374       -3.14231       -5.16503
S         -0.80206       -4.35997       -4.40186
N          3.77193       -4.38828       -2.34727
H          0.89217       -0.71999        0.74439
H          0.17710        0.80309        0.18893
H          1.93668        0.61279        0.24553
H          0.00225       -0.87586       -1.62846
H          1.09768        0.43561       -2.08811
H          0.53338       -2.86206       -0.05663
H          2.15479       -3.46069        0.25874
H          1.64019       -5.52989       -1.03239
H          0.48109       -5.28618        0.26520
H         -0.54280       -5.97279       -1.96082
H         -1.23167       -4.50549       -1.25051
H          1.71836       -1.78272       -4.60648
H         -0.04731       -2.90037       -6.20533
H          3.13715       -4.98308       -2.87111
H          4.70926       -4.38014       -2.74072

--Link1--
%chk=JID_7841.chk
%mem=8GB
%nprocshared=4
# B3LYP/6-311++G(d,p) empiricaldispersion=gd3bj scf=xqc pop=npa geom=check

CID_79960912_JID_7841_Energie_neutraal

0 1

--Link1--
%chk=JID_7841.chk
%mem=8GB
%nprocshared=4
# B3LYP/6-311++G(d,p) empiricaldispersion=gd3bj scf=xqc pop=npa geom=check

CID_79960912_JID_7841_Energie_kation

1 2

--Link1--
%chk=JID_7841.chk
%mem=8GB
%nprocshared=4
# B3LYP/6-311++G(d,p) empiricaldispersion=gd3bj scf=xqc pop=npa geom=check

CID_79960912_JID_7841_Energie_anion

-1 2
