%chk=JID_4625.chk
%mem=8GB
%nprocshared=4
# opt freq B3LYP/6-31G(d) empiricaldispersion=gd3bj scf=xqc

CID_146909856_JID_4625_neutraal

0 1
C          1.06557       -0.05074       -0.05592
C          1.30007       -0.21764       -1.55129
C          0.17310       -0.99935       -2.25491
C         -1.12840       -0.18896       -2.28677
N          0.55703       -1.30613       -3.64789
C          1.43663       -2.49901       -3.74124
C          0.64353       -3.80162       -3.52952
O         -0.55819       -3.82149       -3.82723
C          1.35206       -4.96729       -2.99843
N          0.71955       -6.07749       -2.66571
C          1.61167       -7.00330       -2.16538
C          2.92851       -6.59885       -2.12595
S          3.05271       -5.01137       -2.75328
C          4.12368       -7.32809       -1.63083
H          0.18938        0.57063        0.14922
H          1.93021        0.43651        0.40650
H          0.92534       -1.02140        0.43014
H          1.41941        0.77182       -2.01047
H          2.25936       -0.73287       -1.67155
H         -0.03326       -1.92572       -1.70484
H         -0.99057        0.77473       -2.78967
H         -1.91848       -0.73579       -2.81444
H         -1.49916        0.00601       -1.27576
H         -0.29362       -1.53829       -4.17452
H          1.85691       -2.53693       -4.75231
H          2.26459       -2.40187       -3.03813
H          1.23987       -7.96623       -1.83459
H          3.93709       -8.40666       -1.60356
H          4.99327       -7.15728       -2.27368
H          4.37346       -7.00199       -0.61580

--Link1--
%chk=JID_4625.chk
%mem=8GB
%nprocshared=4
# B3LYP/6-311++G(d,p) empiricaldispersion=gd3bj scf=xqc pop=npa geom=check

CID_146909856_JID_4625_Energie_neutraal

0 1

--Link1--
%chk=JID_4625.chk
%mem=8GB
%nprocshared=4
# B3LYP/6-311++G(d,p) empiricaldispersion=gd3bj scf=xqc pop=npa geom=check

CID_146909856_JID_4625_Energie_kation

1 2

--Link1--
%chk=JID_4625.chk
%mem=8GB
%nprocshared=4
# B3LYP/6-311++G(d,p) empiricaldispersion=gd3bj scf=xqc pop=npa geom=check

CID_146909856_JID_4625_Energie_anion

-1 2
