%chk=JID_10605.chk
%mem=8GB
%nprocshared=4
# opt freq B3LYP/6-31G(d) empiricaldispersion=gd3bj scf=xqc

CID_102810591_JID_10605_neutraal

0 1
C          1.03722       -0.05310       -0.07613
C          0.40815        1.32526       -0.22656
C          0.79058        2.06145       -1.47611
N          1.32428        1.41534       -2.52170
N          1.51736        2.36724       -3.44253
C          1.14224        3.60970       -3.02391
C          0.65350        3.45876       -1.73875
C          0.10270        4.49073       -0.85664
O         -0.55462        4.16388        0.13290
C          0.34837        5.95870       -1.20768
C         -0.85418        6.42018       -1.92545
N         -1.76665        6.79381       -2.53971
C          0.75329        6.86594       -0.03944
C          0.70955        8.26577       -0.19125
C          1.13397        9.11616        0.83105
C          1.62561        8.58770        2.02076
C          1.70637        7.20398        2.19489
C          1.28099        6.35491        1.16143
C          2.23492        6.64444        3.48377
C          2.07120        2.00890       -4.72612
H          0.72143       -0.72629       -0.88024
H          0.73547       -0.50346        0.87503
H          2.13078        0.00642       -0.09123
H         -0.68344        1.22543       -0.19873
H          0.70154        1.92403        0.64392
H          1.23518        4.46530       -3.67847
H          1.20526        6.01080       -1.89105
H          0.34367        8.72134       -1.11071
H          1.08108       10.19402        0.69797
H          1.94837        9.26066        2.81211
H          1.36311        5.28087        1.32080
H          3.24943        7.01258        3.66733
H          1.58759        6.94076        4.31540
H          2.27529        5.55048        3.46186
H          3.05964        1.57157       -4.56465
H          1.40256        1.28627       -5.20047
H          2.15595        2.90344       -5.34797

--Link1--
%chk=JID_10605.chk
%mem=8GB
%nprocshared=4
# B3LYP/6-311++G(d,p) empiricaldispersion=gd3bj scf=xqc pop=npa geom=check

CID_102810591_JID_10605_Energie_neutraal

0 1

--Link1--
%chk=JID_10605.chk
%mem=8GB
%nprocshared=4
# B3LYP/6-311++G(d,p) empiricaldispersion=gd3bj scf=xqc pop=npa geom=check

CID_102810591_JID_10605_Energie_kation

1 2

--Link1--
%chk=JID_10605.chk
%mem=8GB
%nprocshared=4
# B3LYP/6-311++G(d,p) empiricaldispersion=gd3bj scf=xqc pop=npa geom=check

CID_102810591_JID_10605_Energie_anion

-1 2
