%chk=JID_3585.chk
%mem=8GB
%nprocshared=4
# opt freq B3LYP/6-31G(d) empiricaldispersion=gd3bj scf=xqc

CID_64450863_JID_3585_neutraal

0 1
C          1.04299       -0.03747        0.08215
C          0.47446        1.08183       -0.80284
C          1.21534        1.03302       -2.15751
C         -1.01783        0.81837       -1.06029
C          0.70809        2.49266       -0.19188
C         -0.05446        2.88030        1.08203
N          0.48405        2.36339        2.32610
C          1.53173        2.85338        3.07423
C          1.60771        2.02966        4.18139
C          0.54048        1.13015        4.04536
N         -0.17102        1.35436        2.94177
C          2.34965        4.03706        2.71635
N          3.43850        3.64068        1.84174
H          1.05597       -0.99412       -0.45345
H          0.44158       -0.19373        0.97969
H          2.07093        0.18244        0.39034
H          1.08940        0.06026       -2.64656
H          0.83716        1.79849       -2.84462
H          2.29017        1.20218       -2.02609
H         -1.58226        0.73198       -0.12629
H         -1.46484        1.62418       -1.65295
H         -1.16312       -0.11842       -1.61065
H          1.78325        2.63509       -0.03710
H          0.42031        3.23058       -0.95441
H         -0.05201        3.97238        1.17900
H         -1.10982        2.59498        1.02397
H          2.32107        2.09221        4.99041
H          0.23940        0.33211        4.71122
H          1.74738        4.81170        2.23268
H          2.76425        4.48545        3.62691
H          4.07246        4.42792        1.72008
H          3.98001        2.90934        2.30121

--Link1--
%chk=JID_3585.chk
%mem=8GB
%nprocshared=4
# B3LYP/6-311++G(d,p) empiricaldispersion=gd3bj scf=xqc pop=npa geom=check

CID_64450863_JID_3585_Energie_neutraal

0 1

--Link1--
%chk=JID_3585.chk
%mem=8GB
%nprocshared=4
# B3LYP/6-311++G(d,p) empiricaldispersion=gd3bj scf=xqc pop=npa geom=check

CID_64450863_JID_3585_Energie_kation

1 2

--Link1--
%chk=JID_3585.chk
%mem=8GB
%nprocshared=4
# B3LYP/6-311++G(d,p) empiricaldispersion=gd3bj scf=xqc pop=npa geom=check

CID_64450863_JID_3585_Energie_anion

-1 2
