%chk=JID_5436.chk
%mem=8GB
%nprocshared=4
# opt freq B3LYP/6-31G(d) empiricaldispersion=gd3bj scf=xqc

CID_138993772_JID_5436_neutraal

0 1
C          1.05337        0.04798       -0.06964
N          0.32909       -1.18621        0.23996
C         -0.21125       -1.26250        1.60498
C         -1.33097       -0.27128        1.77947
C         -2.61657       -0.41397        1.00191
C         -2.60723       -0.66637        2.48314
C          1.10998       -2.33086       -0.03954
N          2.46631       -2.24150       -0.11795
C          3.18401       -3.35014       -0.38806
N          2.73809       -4.59758       -0.60586
C          1.40071       -4.64768       -0.54183
C          0.53440       -3.59846       -0.27666
C         -0.78371       -4.13960       -0.34053
C         -0.67675       -5.48598       -0.62041
N          0.65760       -5.77934       -0.73958
H          0.37700        0.90750       -0.01356
H          1.44259        0.03334       -1.09502
H          1.88099        0.22692        0.62717
H         -0.59461       -2.26513        1.83042
H          0.57424       -1.05321        2.34316
H         -0.95925        0.73163        1.95485
H         -3.08722        0.49205        0.63809
H         -2.71920       -1.26193        0.33457
H         -2.72746       -1.68966        2.82010
H         -3.08047        0.06835        3.12482
H          4.26039       -3.21536       -0.43382
H         -1.70595       -3.59163       -0.19947
H         -1.42867       -6.25259       -0.75199
H          1.05735       -6.68183       -0.95143

--Link1--
%chk=JID_5436.chk
%mem=8GB
%nprocshared=4
# B3LYP/6-311++G(d,p) empiricaldispersion=gd3bj scf=xqc pop=npa geom=check

CID_138993772_JID_5436_Energie_neutraal

0 1

--Link1--
%chk=JID_5436.chk
%mem=8GB
%nprocshared=4
# B3LYP/6-311++G(d,p) empiricaldispersion=gd3bj scf=xqc pop=npa geom=check

CID_138993772_JID_5436_Energie_kation

1 2

--Link1--
%chk=JID_5436.chk
%mem=8GB
%nprocshared=4
# B3LYP/6-311++G(d,p) empiricaldispersion=gd3bj scf=xqc pop=npa geom=check

CID_138993772_JID_5436_Energie_anion

-1 2
