%chk=JID_2191.chk
%mem=8GB
%nprocshared=4
# opt freq B3LYP/6-31G(d) empiricaldispersion=gd3bj scf=xqc

CID_36691340_JID_2191_neutraal

0 1
C         -1.52500       -2.50000        0.00700
C         -0.78372       -1.18995       -0.01101
C          0.62194       -1.19896        0.03949
C          1.35763       -0.01505       -0.01065
C          0.67088        1.19892       -0.00237
C         -0.73291        1.24605       -0.08010
C         -1.47613        0.04174       -0.09320
C         -2.99083        0.06863       -0.17841
O         -3.60807        0.74654        0.70179
O         -3.52477       -0.58918       -1.12612
C         -1.41834        2.58583       -0.11131
N          2.75410       -0.04100        0.15331
H         -1.88367       -2.74692       -0.99685
H         -0.87583       -3.31654        0.34188
H         -2.36852       -2.46404        0.70386
H          1.14206       -2.14922        0.11661
H          1.22892        2.12919        0.05017
H         -1.85295        2.81299        0.86687
H         -0.71104        3.38522       -0.35843
H         -2.19837        2.61025       -0.87893
H          3.16325       -0.89863       -0.20175
H          3.19802        0.78690       -0.22936

--Link1--
%chk=JID_2191.chk
%mem=8GB
%nprocshared=4
# B3LYP/6-311++G(d,p) empiricaldispersion=gd3bj scf=xqc pop=npa geom=check

CID_36691340_JID_2191_Energie_neutraal

0 1

--Link1--
%chk=JID_2191.chk
%mem=8GB
%nprocshared=4
# B3LYP/6-311++G(d,p) empiricaldispersion=gd3bj scf=xqc pop=npa geom=check

CID_36691340_JID_2191_Energie_kation

1 2

--Link1--
%chk=JID_2191.chk
%mem=8GB
%nprocshared=4
# B3LYP/6-311++G(d,p) empiricaldispersion=gd3bj scf=xqc pop=npa geom=check

CID_36691340_JID_2191_Energie_anion

-1 2
