%chk=JID_267.chk
%mem=8GB
%nprocshared=4
# opt freq B3LYP/6-31G(d) empiricaldispersion=gd3bj scf=xqc

CID_87521818_JID_267_neutraal

0 1
C          0.94163        0.05071       -0.06341
C          0.18681       -0.56800        1.11595
C          0.78582       -0.30001        2.50436
C          0.06378       -0.27734        3.66205
C         -1.39243       -0.69641        3.72667
C          0.58295        0.12791        5.03914
C          1.19161       -1.03226        5.81596
O          1.53132        1.18584        4.94691
C          2.29287       -0.13373        2.49437
O         -1.13665       -0.03712        1.02973
H          1.04574        1.13489        0.05950
H          0.38332       -0.10414       -0.99405
H          1.93564       -0.38608       -0.19499
H          0.12511       -1.65140        0.96286
H         -1.60308       -1.21662        4.66808
H         -2.04361        0.18154        3.67288
H         -1.66517       -1.40429        2.93907
H         -0.24743        0.53985        5.62565
H          2.06521       -1.44900        5.30440
H          1.54097       -0.68903        6.79606
H          0.46694       -1.83785        5.97009
H          1.16282        1.83233        4.32190
H          2.75314       -0.91408        1.87802
H          2.56920        0.84552        2.09160
H          2.75733       -0.23984        3.47591
H         -1.08492        0.88548        1.33101

--Link1--
%chk=JID_267.chk
%mem=8GB
%nprocshared=4
# B3LYP/6-311++G(d,p) empiricaldispersion=gd3bj scf=xqc pop=npa geom=check

CID_87521818_JID_267_Energie_neutraal

0 1

--Link1--
%chk=JID_267.chk
%mem=8GB
%nprocshared=4
# B3LYP/6-311++G(d,p) empiricaldispersion=gd3bj scf=xqc pop=npa geom=check

CID_87521818_JID_267_Energie_kation

1 2

--Link1--
%chk=JID_267.chk
%mem=8GB
%nprocshared=4
# B3LYP/6-311++G(d,p) empiricaldispersion=gd3bj scf=xqc pop=npa geom=check

CID_87521818_JID_267_Energie_anion

-1 2
