%chk=JID_2144.chk
%mem=8GB
%nprocshared=4
# opt freq B3LYP/6-31G(d) empiricaldispersion=gd3bj scf=xqc

CID_129694124_JID_2144_neutraal

0 1
C          0.93347       -0.05075        0.05475
C          0.51751       -0.65877       -1.27542
C          0.87964       -2.11433       -1.34790
C         -0.02522       -3.10151       -1.43606
C          0.34780       -4.49716       -1.50486
C         -0.46746       -5.56262       -1.56787
C         -1.91500       -5.55722       -1.58666
C         -2.74102       -6.61675       -1.60807
C         -2.37889       -8.01802       -1.60336
C         -3.22032       -9.07125       -1.63498
C         -2.67280      -10.47670       -1.60450
C         -4.72304       -9.01173       -1.69959
H          0.42710       -0.54466        0.89101
H          0.67351        1.01230        0.08211
H          2.01409       -0.13803        0.21080
H         -0.55973       -0.51308       -1.41731
H          1.02058       -0.12980       -2.09290
H          1.94291       -2.34512       -1.33116
H         -1.08073       -2.84747       -1.45109
H          1.41923       -4.69878       -1.49980
H          0.01827       -6.53451       -1.60998
H         -2.39467       -4.58094       -1.58527
H         -3.80365       -6.38755       -1.62015
H         -1.31354       -8.23244       -1.55920
H         -3.06041      -11.01477       -0.73312
H         -2.96905      -11.01847       -2.50879
H         -1.57938      -10.49902       -1.54806
H         -5.15351       -9.43719       -0.78693
H         -5.12219       -8.00214       -1.81276
H         -5.08485       -9.59453       -2.55363

--Link1--
%chk=JID_2144.chk
%mem=8GB
%nprocshared=4
# B3LYP/6-311++G(d,p) empiricaldispersion=gd3bj scf=xqc pop=npa geom=check

CID_129694124_JID_2144_Energie_neutraal

0 1

--Link1--
%chk=JID_2144.chk
%mem=8GB
%nprocshared=4
# B3LYP/6-311++G(d,p) empiricaldispersion=gd3bj scf=xqc pop=npa geom=check

CID_129694124_JID_2144_Energie_kation

1 2

--Link1--
%chk=JID_2144.chk
%mem=8GB
%nprocshared=4
# B3LYP/6-311++G(d,p) empiricaldispersion=gd3bj scf=xqc pop=npa geom=check

CID_129694124_JID_2144_Energie_anion

-1 2
