%chk=JID_6984.chk
%mem=8GB
%nprocshared=4
# opt freq B3LYP/6-31G(d) empiricaldispersion=gd3bj scf=xqc

CID_83626806_JID_6984_neutraal

0 1
C          2.49200        0.00400       -0.01400
C          1.19293        0.51346        0.54900
C          0.25325       -0.48979        0.88657
C         -1.01041       -0.17944        1.37340
C         -1.36194        1.14655        1.53505
C         -0.44159        2.15188        1.22722
C          0.86763        1.88105        0.75110
C          1.78816        3.09117        0.41619
C          1.55700        3.44517       -1.07085
C          1.43241        4.35852        1.25085
C          3.31853        2.88495        0.62406
N          3.68776        2.42097        1.95009
C          4.94404        2.10131        2.38526
O          5.08056        1.52854        3.46618
C          6.14123        2.38622        1.47098
N          6.54016        1.15508        0.77190
H          3.29172        0.06921        0.72625
H          2.41714       -1.05111       -0.30340
H          2.75489        0.53653       -0.93120
H          0.50403       -1.54144        0.75248
H         -1.71667       -0.96987        1.61020
H         -2.35307        1.40881        1.89567
H         -0.79601        3.17041        1.36016
H          0.50511        3.68462       -1.26785
H          2.15360        4.31553       -1.36822
H          1.83126        2.61530       -1.73130
H          1.41408        4.13836        2.32459
H          2.16246        5.16131        1.09098
H          0.46245        4.78426        0.97186
H          3.75233        2.20574       -0.11258
H          3.84346        3.83558        0.46275
H          2.95308        2.09896        2.57282
H          5.92342        3.17198        0.74532
H          6.96835        2.74569        2.09182
H          5.72824        0.76449        0.29615
H          6.78632        0.46466        1.48612

--Link1--
%chk=JID_6984.chk
%mem=8GB
%nprocshared=4
# B3LYP/6-311++G(d,p) empiricaldispersion=gd3bj scf=xqc pop=npa geom=check

CID_83626806_JID_6984_Energie_neutraal

0 1

--Link1--
%chk=JID_6984.chk
%mem=8GB
%nprocshared=4
# B3LYP/6-311++G(d,p) empiricaldispersion=gd3bj scf=xqc pop=npa geom=check

CID_83626806_JID_6984_Energie_kation

1 2

--Link1--
%chk=JID_6984.chk
%mem=8GB
%nprocshared=4
# B3LYP/6-311++G(d,p) empiricaldispersion=gd3bj scf=xqc pop=npa geom=check

CID_83626806_JID_6984_Energie_anion

-1 2
