%chk=JID_6379.chk
%mem=8GB
%nprocshared=4
# opt freq B3LYP/6-31G(d) empiricaldispersion=gd3bj scf=xqc

CID_62255494_JID_6379_neutraal

0 1
C          1.08024       -0.05932        0.00656
C          0.84670       -0.04945        1.50685
C          1.48133        1.08190        2.35387
C          2.98133        0.84017        2.63027
C          3.92599        1.35190        1.54708
C          3.64472        2.80108        1.17486
C          2.18277        3.02152        0.80406
C          1.24131        2.55381        1.92280
N         -0.14596        2.83212        1.51858
C         -1.03772        2.99840        2.58187
C         -1.03906        4.12409        3.41303
C         -1.95141        4.15296        4.47633
C         -2.84498        3.10538        4.65222
C         -2.79589        2.05891        3.75304
N         -1.91936        1.98802        2.72886
C         -0.11675        5.28996        3.21302
H          0.63056        0.80801       -0.48185
H          0.60734       -0.94650       -0.42943
H          2.13918       -0.10529       -0.24824
H         -0.23792       -0.04179        1.67152
H          1.18308       -1.01431        1.90851
H          0.99188        0.97100        3.33419
H          3.23769        1.35504        3.56651
H          3.17343       -0.22372        2.81284
H          3.86041        0.72244        0.65573
H          4.96001        1.26545        1.90186
H          4.28675        3.09831        0.33792
H          3.90672        3.45020        2.01972
H          1.96275        2.51694       -0.14121
H          2.02280        4.09071        0.61405
H          1.50014        3.17102        2.79349
H         -0.53365        2.02880        1.02586
H         -1.97767        5.00018        5.15689
H         -3.56702        3.11171        5.46026
H         -3.47954        1.21905        3.83373
H          0.79397        5.15957        3.80512
H          0.15301        5.41567        2.15982
H         -0.60040        6.22259        3.52430

--Link1--
%chk=JID_6379.chk
%mem=8GB
%nprocshared=4
# B3LYP/6-311++G(d,p) empiricaldispersion=gd3bj scf=xqc pop=npa geom=check

CID_62255494_JID_6379_Energie_neutraal

0 1

--Link1--
%chk=JID_6379.chk
%mem=8GB
%nprocshared=4
# B3LYP/6-311++G(d,p) empiricaldispersion=gd3bj scf=xqc pop=npa geom=check

CID_62255494_JID_6379_Energie_kation

1 2

--Link1--
%chk=JID_6379.chk
%mem=8GB
%nprocshared=4
# B3LYP/6-311++G(d,p) empiricaldispersion=gd3bj scf=xqc pop=npa geom=check

CID_62255494_JID_6379_Energie_anion

-1 2
