%chk=JID_6987.chk
%mem=8GB
%nprocshared=4
# opt freq B3LYP/6-31G(d) empiricaldispersion=gd3bj scf=xqc

CID_105842168_JID_6987_neutraal

0 1
C          0.98064        0.08285        0.05254
O          0.64364       -0.29706        1.37928
C          1.58827       -1.10614        2.13307
C          0.87327       -2.21750        2.97160
C          2.00821       -3.18172        2.59180
C          2.29108       -2.28251        1.37779
C          2.46416       -0.21286        3.03337
N          3.36370        0.56517        2.19713
C          3.69622        1.88159        2.26609
O          4.44321        2.33997        1.39835
C          3.15008        2.75950        3.37050
C          2.09533        3.74663        2.90162
C          0.74275        3.21949        2.35391
C          0.03083        4.36345        3.10595
C          1.28278        4.48617        3.99997
N          2.60235        4.76639        1.96818
H          0.34444        0.92377       -0.23570
H          0.78370       -0.74894       -0.62888
H          2.02454        0.39002       -0.03239
H          0.76301       -2.02880        4.04353
H         -0.10450       -2.51209        2.57113
H          1.70213       -4.20555        2.36209
H          2.82628       -3.21293        3.32001
H          1.77221       -2.61449        0.47114
H          3.35002       -2.15010        1.14050
H          1.82853        0.43262        3.64228
H          3.09510       -0.80470        3.70434
H          3.83986        0.09162        1.43886
H          2.77150        2.15200        4.19621
H          4.00696        3.29809        3.79756
H          0.60973        3.21081        1.26779
H          0.46241        2.23211        2.73878
H         -0.89215        4.08641        3.62209
H         -0.16198        5.24787        2.48825
H          1.18888        3.92166        4.93639
H          1.58719        5.50694        4.25185
H          3.31099        5.37811        2.37381
H          3.06377        4.35482        1.15016

--Link1--
%chk=JID_6987.chk
%mem=8GB
%nprocshared=4
# B3LYP/6-311++G(d,p) empiricaldispersion=gd3bj scf=xqc pop=npa geom=check

CID_105842168_JID_6987_Energie_neutraal

0 1

--Link1--
%chk=JID_6987.chk
%mem=8GB
%nprocshared=4
# B3LYP/6-311++G(d,p) empiricaldispersion=gd3bj scf=xqc pop=npa geom=check

CID_105842168_JID_6987_Energie_kation

1 2

--Link1--
%chk=JID_6987.chk
%mem=8GB
%nprocshared=4
# B3LYP/6-311++G(d,p) empiricaldispersion=gd3bj scf=xqc pop=npa geom=check

CID_105842168_JID_6987_Energie_anion

-1 2
