%chk=JID_10497.chk
%mem=8GB
%nprocshared=4
# opt freq B3LYP/6-31G(d) empiricaldispersion=gd3bj scf=xqc

CID_147429352_JID_10497_neutraal

0 1
O       2.0555  -0.8831 -0.2894
O       2.4119  1.5138  1.4899
O       2.5328  1.6154  -2.1225
O       4.5495  -2.0833 0.0142
N       -1.5743 -1.7904 0.4034
N       -2.7727 1.7152  0.4377
N       -4.2702 0.3672  -0.8832
N       -3.8704 -1.9516 -1.1615
C       1.0848  0.1376  -0.0033
C       1.8763  1.4269  0.1766
C       2.9976  1.2455  -0.8261
C       0.2486  -0.2860 1.1907
C       3.2450  -0.2627 -0.8168
C       -0.8230 0.7440  1.5546
C       4.4132  -0.6739 0.0681
C       -0.3850 -1.6282 0.8950
C       -2.0266 0.6118  0.6645
C       -2.3441 -0.6431 0.1574
C       -3.4898 -0.7002 -0.6151
C       -3.8591 1.5252  -0.3343
H       0.4618  0.2149  -0.9045
H       1.2598  2.3110  -0.0142
H       3.8939  1.8318  -0.6015
H       0.9024  -0.4504 2.0568
H       3.3886  -0.6660 -1.8260
H       -0.4387 1.7685  1.5336
H       -1.1634 0.5558  2.5814
H       4.2409  -0.3999 1.1134
H       5.3455  -0.2167 -0.2772
H       0.2334  -2.5238 1.0738
H       2.9560  2.3187  1.5298
H       3.2609  1.4592  -2.7480
H       5.3024  -2.3206 0.5820
H       -4.4690 2.3979  -0.5333
H       -3.1460 -2.6352 -1.3443
H       -4.7067 -1.9707 -1.7318

--Link1--
%chk=JID_10497.chk
%mem=8GB
%nprocshared=4
# B3LYP/6-311++G(d,p) empiricaldispersion=gd3bj scf=xqc pop=npa geom=check

CID_147429352_JID_10497_Energie_neutraal

0 1

--Link1--
%chk=JID_10497.chk
%mem=8GB
%nprocshared=4
# B3LYP/6-311++G(d,p) empiricaldispersion=gd3bj scf=xqc pop=npa geom=check

CID_147429352_JID_10497_Energie_kation

1 2

--Link1--
%chk=JID_10497.chk
%mem=8GB
%nprocshared=4
# B3LYP/6-311++G(d,p) empiricaldispersion=gd3bj scf=xqc pop=npa geom=check

CID_147429352_JID_10497_Energie_anion

-1 2
