%chk=JID_7598.chk
%mem=8GB
%nprocshared=4
# opt freq B3LYP/6-31G(d) empiricaldispersion=gd3bj scf=xqc

CID_3493775_JID_7598_neutraal

0 1
C          1.04389        0.06991       -0.05645
N          0.56202        1.33251        0.45874
C          0.38895        2.53111       -0.13427
S          0.06248        3.85346        0.83352
N          0.48416        2.71683       -1.47345
N          0.57966        1.70971       -2.41909
C         -0.50478        1.22315       -3.10388
O         -0.42264        0.13868       -3.68684
C         -1.77542        2.03132       -3.12898
C         -2.77882        1.57293       -2.10774
O         -3.06509        2.26188       -1.12940
N         -3.40058        0.36697       -2.30216
N         -3.18383       -0.44025       -3.42341
C         -4.13859       -1.32312       -3.82809
S         -3.69853       -2.76894       -4.52978
N         -5.45518       -1.03839       -3.66170
C         -6.05757        0.27242       -3.52917
H          2.00438        0.21971       -0.55435
H          0.30899       -0.34798       -0.74730
H          1.17470       -0.61587        0.78458
H          0.43183        1.37443        1.46415
H          0.34441        3.66724       -1.81043
H          1.42459        1.14822       -2.42218
H         -1.56828        3.09531       -2.97560
H         -2.21268        1.96482       -4.13226
H         -4.07619        0.05032       -1.61220
H         -2.21650       -0.75689       -3.55712
H         -6.06707       -1.77608       -3.99392
H         -7.04864        0.23877       -3.98957
H         -6.16793        0.50802       -2.46826
H         -5.45012        1.02949       -4.03125

--Link1--
%chk=JID_7598.chk
%mem=8GB
%nprocshared=4
# B3LYP/6-311++G(d,p) empiricaldispersion=gd3bj scf=xqc pop=npa geom=check

CID_3493775_JID_7598_Energie_neutraal

0 1

--Link1--
%chk=JID_7598.chk
%mem=8GB
%nprocshared=4
# B3LYP/6-311++G(d,p) empiricaldispersion=gd3bj scf=xqc pop=npa geom=check

CID_3493775_JID_7598_Energie_kation

1 2

--Link1--
%chk=JID_7598.chk
%mem=8GB
%nprocshared=4
# B3LYP/6-311++G(d,p) empiricaldispersion=gd3bj scf=xqc pop=npa geom=check

CID_3493775_JID_7598_Energie_anion

-1 2
