%chk=JID_7012.chk
%mem=8GB
%nprocshared=4
# opt freq B3LYP/6-31G(d) empiricaldispersion=gd3bj scf=xqc

CID_113774460_JID_7012_neutraal

0 1
C          1.04558       -0.04827        0.07479
C          0.18150       -1.30111        0.10360
C          0.71150       -2.39619        1.03508
N          0.69078       -1.96186        2.43060
C          1.04594       -3.02914        3.37407
C          2.54706       -3.34497        3.36353
C          0.57143       -2.65064        4.77591
C         -0.22250       -3.50233        5.46323
C         -0.80754       -3.32143        6.75009
C         -1.45022       -2.19526        7.20920
N         -1.87938       -2.49476        8.46675
N         -1.58074       -3.74706        8.85536
C         -0.93252       -4.26741        7.80248
C         -0.43962       -5.67512        7.85696
C          1.02311       -5.76024        8.26550
C         -2.60429       -1.62913        9.36383
C          1.05155       -1.32737        5.32128
H          1.03881        0.46855        1.03907
H          0.66682        0.65089       -0.67775
H          2.08163       -0.29200       -0.18077
H         -0.84208       -1.02928        0.38901
H          0.12603       -1.70907       -0.91297
H          0.07417       -3.27970        0.91061
H          1.72626       -2.67076        0.72643
H          1.33124       -1.18010        2.55328
H          0.51892       -3.94437        3.07186
H          3.15969       -2.44923        3.51219
H          2.80132       -4.05964        4.15463
H          2.84819       -3.79498        2.41161
H         -0.46414       -4.45502        4.99361
H         -1.64064       -1.23450        6.75248
H         -1.04450       -6.25370        8.56608
H         -0.57251       -6.15196        6.87886
H          1.18317       -5.31880        9.25508
H          1.34646       -6.80529        8.30247
H          1.66604       -5.23086        7.55417
H         -3.57299       -2.08753        9.57778
H         -2.02076       -1.51617       10.28092
H         -2.74886       -0.65408        8.89202
H          2.10882       -1.16707        5.08947
H          0.47663       -0.50357        4.88657
H          0.97494       -1.26218        6.40996

--Link1--
%chk=JID_7012.chk
%mem=8GB
%nprocshared=4
# B3LYP/6-311++G(d,p) empiricaldispersion=gd3bj scf=xqc pop=npa geom=check

CID_113774460_JID_7012_Energie_neutraal

0 1

--Link1--
%chk=JID_7012.chk
%mem=8GB
%nprocshared=4
# B3LYP/6-311++G(d,p) empiricaldispersion=gd3bj scf=xqc pop=npa geom=check

CID_113774460_JID_7012_Energie_kation

1 2

--Link1--
%chk=JID_7012.chk
%mem=8GB
%nprocshared=4
# B3LYP/6-311++G(d,p) empiricaldispersion=gd3bj scf=xqc pop=npa geom=check

CID_113774460_JID_7012_Energie_anion

-1 2
