%chk=JID_10673.chk
%mem=8GB
%nprocshared=4
# opt freq B3LYP/6-31G(d) empiricaldispersion=gd3bj scf=xqc

CID_114910932_JID_10673_neutraal

0 1
C          2.70000        0.89700        0.02400
C          1.32216        0.29220       -0.02368
C          0.11833        1.04621       -0.03338
C         -1.07920        0.29876       -0.07431
N         -1.13892       -1.04671       -0.13036
C          0.02084       -1.72129       -0.12499
C          1.25363       -1.10868       -0.06708
N         -2.34727        0.87977       -0.05183
C          0.06283        2.58741       -0.05672
C         -0.46270        3.06236       -1.42624
C         -0.71278        3.18471        1.12091
C         -1.79967        4.04091        1.11505
C         -2.26339        4.39649        2.42560
C         -3.33838        5.22537        2.82734
C         -3.60576        5.42944        4.18441
C         -2.81872        4.82098        5.15205
C         -1.75170        3.99827        4.78446
C         -1.48703        3.79545        3.41603
S         -0.23735        2.83269        2.73524
O          1.36018        3.19571        0.04475
H          2.88170        1.51412       -0.86115
H          2.83583        1.47662        0.94209
H          3.47794        0.12462        0.02849
H         -0.06768       -2.80242       -0.16754
H          2.15105       -1.71953       -0.06342
H         -2.48491        1.38247        0.81981
H         -2.99500        0.09374       -0.09248
H         -1.49982        2.77283       -1.61936
H         -0.40198        4.15417       -1.51785
H          0.15419        2.65578       -2.23758
H         -2.26930        4.40028        0.20680
H         -3.96217        5.70753        2.07869
H         -4.43434        6.06816        4.48080
H         -3.03208        4.98429        6.20591
H         -1.13651        3.52281        5.54325
H          1.22096        4.14275        0.21262

--Link1--
%chk=JID_10673.chk
%mem=8GB
%nprocshared=4
# B3LYP/6-311++G(d,p) empiricaldispersion=gd3bj scf=xqc pop=npa geom=check

CID_114910932_JID_10673_Energie_neutraal

0 1

--Link1--
%chk=JID_10673.chk
%mem=8GB
%nprocshared=4
# B3LYP/6-311++G(d,p) empiricaldispersion=gd3bj scf=xqc pop=npa geom=check

CID_114910932_JID_10673_Energie_kation

1 2

--Link1--
%chk=JID_10673.chk
%mem=8GB
%nprocshared=4
# B3LYP/6-311++G(d,p) empiricaldispersion=gd3bj scf=xqc pop=npa geom=check

CID_114910932_JID_10673_Energie_anion

-1 2
