%chk=JID_7178.chk
%mem=8GB
%nprocshared=4
# opt freq B3LYP/6-31G(d) empiricaldispersion=gd3bj scf=xqc

CID_115225544_JID_7178_neutraal

0 1
C          1.09426        0.03272        0.00672
N          0.49793        0.53476       -1.22481
C         -0.26773       -0.41840       -2.01587
N         -1.69847       -0.19896       -2.13289
C          0.98034        1.70317       -1.81539
C          0.37276        2.26232       -2.95420
C          0.83803        3.44334       -3.54869
C          1.94002        4.10345       -3.02037
C          2.54982        3.59851       -1.87667
C          2.07484        2.41521       -1.29149
O          2.30858        5.27885       -3.63394
C          3.64859        5.58410       -3.66716
C          4.04328        6.81754       -3.14972
C          5.38750        7.18762       -3.19163
C          6.32865        6.33192       -3.76631
C          5.92662        5.10908       -4.30663
C          4.58292        4.73565       -4.26508
H          0.49209       -0.77711        0.43467
H          1.13917        0.81118        0.77642
H          2.10031       -0.35919       -0.17751
H          0.16077       -0.50989       -3.02243
H         -0.13884       -1.41962       -1.58398
H         -2.15451       -1.07882       -2.35343
H         -2.02248        0.08807       -1.21285
H         -0.50678        1.79907       -3.39462
H          0.32776        3.84350       -4.42024
H          3.38836        4.11346       -1.41709
H          2.59775        2.06492       -0.40684
H          3.30596        7.48347       -2.71058
H          5.70021        8.14394       -2.78084
H          7.37565        6.62238       -3.80114
H          6.65891        4.44989       -4.76531
H          4.26852        3.79093       -4.69947

--Link1--
%chk=JID_7178.chk
%mem=8GB
%nprocshared=4
# B3LYP/6-311++G(d,p) empiricaldispersion=gd3bj scf=xqc pop=npa geom=check

CID_115225544_JID_7178_Energie_neutraal

0 1

--Link1--
%chk=JID_7178.chk
%mem=8GB
%nprocshared=4
# B3LYP/6-311++G(d,p) empiricaldispersion=gd3bj scf=xqc pop=npa geom=check

CID_115225544_JID_7178_Energie_kation

1 2

--Link1--
%chk=JID_7178.chk
%mem=8GB
%nprocshared=4
# B3LYP/6-311++G(d,p) empiricaldispersion=gd3bj scf=xqc pop=npa geom=check

CID_115225544_JID_7178_Energie_anion

-1 2
