%chk=JID_3070.chk
%mem=8GB
%nprocshared=4
# opt freq B3LYP/6-31G(d) empiricaldispersion=gd3bj scf=xqc

CID_66420625_JID_3070_neutraal

0 1
C          1.02828       -0.06494        0.07059
C          0.96519        1.18065        0.94105
N          0.86035        2.40657        0.14733
C         -0.48312        2.78204       -0.27645
C          2.04026        3.02542       -0.25122
O          3.14693        2.58003        0.06019
C          1.95859        4.27257       -1.11336
C          1.74475        3.91580       -2.59610
C          3.00823        3.32296       -3.26535
S          4.34587        4.53217       -3.53806
C          3.34650        5.80131       -4.36914
C          2.09618        6.16082       -3.56223
N          1.16254        5.04356       -3.36340
H          0.12276       -0.17176       -0.53487
H          1.12749       -0.95887        0.69397
H          1.88348       -0.02616       -0.61200
H          0.10687        1.12834        1.62023
H          1.86306        1.22560        1.56779
H         -0.51806        3.73867       -0.79555
H         -0.86713        2.01041       -0.94971
H         -1.12623        2.84620        0.60627
H          1.16414        4.91982       -0.72656
H          2.88193        4.84476       -0.96376
H          0.99138        3.11979       -2.64543
H          3.41118        2.49660       -2.67166
H          2.74250        2.90504       -4.24352
H          3.07275        5.43874       -5.36597
H          3.96757        6.69262       -4.50429
H          1.55739        6.94162       -4.11227
H          2.37287        6.60796       -2.59966
H          0.33397        5.39147       -2.88141

--Link1--
%chk=JID_3070.chk
%mem=8GB
%nprocshared=4
# B3LYP/6-311++G(d,p) empiricaldispersion=gd3bj scf=xqc pop=npa geom=check

CID_66420625_JID_3070_Energie_neutraal

0 1

--Link1--
%chk=JID_3070.chk
%mem=8GB
%nprocshared=4
# B3LYP/6-311++G(d,p) empiricaldispersion=gd3bj scf=xqc pop=npa geom=check

CID_66420625_JID_3070_Energie_kation

1 2

--Link1--
%chk=JID_3070.chk
%mem=8GB
%nprocshared=4
# B3LYP/6-311++G(d,p) empiricaldispersion=gd3bj scf=xqc pop=npa geom=check

CID_66420625_JID_3070_Energie_anion

-1 2
