%chk=JID_8544.chk
%mem=8GB
%nprocshared=4
# opt freq B3LYP/6-31G(d) empiricaldispersion=gd3bj scf=xqc

CID_154537963_JID_8544_neutraal

0 1
C          0.95784       -0.09053        0.00524
C          0.87264       -1.47409       -0.62515
C          1.28923       -2.60113        0.32928
C          0.45599       -2.71670        1.62740
C         -1.01789       -3.01036        1.29600
C          1.02012       -3.79380        2.61234
C          2.53552       -3.69250        2.84083
C          0.30263       -3.77933        3.94918
C         -0.38415       -4.84717        4.49825
N         -0.91361       -4.45424        5.69655
C         -0.59186       -3.14307        5.95109
C          0.18797       -2.69493        4.88577
C          0.66309       -1.36751        4.92966
C          0.32207       -0.53310        6.00485
C         -0.47855       -1.00187        7.04339
C         -0.93319       -2.32584        7.03711
O         -0.88097       -0.27203        8.13128
C         -0.63480        1.12812        8.08579
H          0.20243        0.04408        0.78470
H          0.78460        0.67781       -0.75526
H          1.94598        0.08346        0.44262
H         -0.13722       -1.64319       -1.01273
H          1.54075       -1.49984       -1.49488
H          1.24886       -3.55385       -0.21362
H          2.34181       -2.42709        0.57738
H          0.48858       -1.74525        2.12934
H         -1.11700       -3.95379        0.74851
H         -1.63100       -3.07820        2.19981
H         -1.45719       -2.21554        0.68618
H          0.84305       -4.77839        2.15480
H          2.83452       -2.67771        3.12292
H          2.86059       -4.36969        3.63929
H          3.09135       -3.97537        1.94128
H         -0.54527       -5.85165        4.13003
H         -1.46960       -5.03550        6.30777
H          1.28876       -0.97806        4.13266
H          0.70668        0.48114        5.99354
H         -1.54705       -2.69846        7.85079
H          0.43834        1.33970        8.13189
H         -1.09055        1.58416        7.20016
H         -1.10083        1.57831        8.96754

--Link1--
%chk=JID_8544.chk
%mem=8GB
%nprocshared=4
# B3LYP/6-311++G(d,p) empiricaldispersion=gd3bj scf=xqc pop=npa geom=check

CID_154537963_JID_8544_Energie_neutraal

0 1

--Link1--
%chk=JID_8544.chk
%mem=8GB
%nprocshared=4
# B3LYP/6-311++G(d,p) empiricaldispersion=gd3bj scf=xqc pop=npa geom=check

CID_154537963_JID_8544_Energie_kation

1 2

--Link1--
%chk=JID_8544.chk
%mem=8GB
%nprocshared=4
# B3LYP/6-311++G(d,p) empiricaldispersion=gd3bj scf=xqc pop=npa geom=check

CID_154537963_JID_8544_Energie_anion

-1 2
