%chk=JID_3844.chk
%mem=8GB
%nprocshared=4
# opt freq B3LYP/6-31G(d) empiricaldispersion=gd3bj scf=xqc

CID_151968684_JID_3844_neutraal

0 1
C          1.07951        0.04385        0.04189
C          0.54334        0.36476       -1.34741
C          1.07343       -0.57004       -2.46232
C          0.72438       -2.03566       -2.16746
C          0.60656       -0.07213       -3.82511
C          0.02704       -0.88417       -4.78195
N         -0.34597       -0.39927       -5.98223
N         -0.13898        0.91582       -6.24085
C          0.42855        1.68787       -5.29399
N          0.83186        1.23763       -4.09217
N          0.63602        3.02320       -5.62151
N          0.52355        3.76444       -4.63456
N          0.41764        4.47518       -3.74782
H          0.66777       -0.89422        0.42502
H          0.79520        0.83459        0.74398
H          2.17155       -0.02774        0.03701
H         -0.55361        0.34056       -1.32584
H          0.82389        1.40235       -1.56900
H          2.16970       -0.49813       -2.47439
H         -0.36017       -2.18761       -2.12763
H          1.13584       -2.70409       -2.93172
H          1.14640       -2.36484       -1.21316
H         -0.16291       -1.93984       -4.64556

--Link1--
%chk=JID_3844.chk
%mem=8GB
%nprocshared=4
# B3LYP/6-311++G(d,p) empiricaldispersion=gd3bj scf=xqc pop=npa geom=check

CID_151968684_JID_3844_Energie_neutraal

0 1

--Link1--
%chk=JID_3844.chk
%mem=8GB
%nprocshared=4
# B3LYP/6-311++G(d,p) empiricaldispersion=gd3bj scf=xqc pop=npa geom=check

CID_151968684_JID_3844_Energie_kation

1 2

--Link1--
%chk=JID_3844.chk
%mem=8GB
%nprocshared=4
# B3LYP/6-311++G(d,p) empiricaldispersion=gd3bj scf=xqc pop=npa geom=check

CID_151968684_JID_3844_Energie_anion

-1 2
