%chk=JID_8405.chk
%mem=8GB
%nprocshared=4
# opt freq B3LYP/6-31G(d) empiricaldispersion=gd3bj scf=xqc

CID_115247346_JID_8405_neutraal

0 1
C         -2.13300       -0.01500        0.07600
N         -0.74911        0.13835       -0.33814
C          0.04921       -1.07075       -0.14372
C          1.48841       -0.56348       -0.03831
C          1.39334        0.97562       -0.03854
C         -0.04921        1.18731        0.40368
C          1.75833        1.53382       -1.43545
N          1.95105        2.98946       -1.47572
C          3.14422        3.36269       -2.23034
C          0.78036        3.83360       -1.77575
C          0.07505        3.69593       -3.14310
C         -0.82146        2.42344       -3.35974
C         -1.90217        3.34139       -3.95259
C         -1.30012        4.47773       -3.10998
C          0.98896        4.17207       -4.33772
O          1.45413        5.30466       -4.46738
O          1.20400        3.17926       -5.25614
C          1.99086        3.57689       -6.37969
H         -2.61986       -0.80544       -0.50539
H         -2.22642       -0.26346        1.13924
H         -2.69202        0.90842       -0.11062
H         -0.21786       -1.60239        0.77829
H         -0.07047       -1.76065       -0.98511
H          2.11271       -0.95131       -0.84995
H          1.92707       -0.90619        0.90693
H          2.09132        1.38821        0.70039
H         -0.44801        2.17552        0.18791
H         -0.13331        1.02719        1.48758
H          2.71472        1.05839       -1.69768
H          1.06867        1.18393       -2.20617
H          3.11948        2.99311       -3.25953
H          3.28547        4.44881       -2.24668
H          4.03802        2.94784       -1.74986
H          0.04766        3.69484       -0.97857
H          1.08486        4.88255       -1.65052
H         -0.44415        1.65437       -4.03869
H         -1.15089        1.93662       -2.43618
H         -2.93468        3.07025       -3.71842
H         -1.81200        3.49312       -5.03408
H         -1.76040        4.56985       -2.11838
H         -1.31083        5.46291       -3.58515
H          1.49670        4.38620       -6.92651
H          2.99247        3.87885       -6.05833
H          2.08584        2.71675       -7.04798

--Link1--
%chk=JID_8405.chk
%mem=8GB
%nprocshared=4
# B3LYP/6-311++G(d,p) empiricaldispersion=gd3bj scf=xqc pop=npa geom=check

CID_115247346_JID_8405_Energie_neutraal

0 1

--Link1--
%chk=JID_8405.chk
%mem=8GB
%nprocshared=4
# B3LYP/6-311++G(d,p) empiricaldispersion=gd3bj scf=xqc pop=npa geom=check

CID_115247346_JID_8405_Energie_kation

1 2

--Link1--
%chk=JID_8405.chk
%mem=8GB
%nprocshared=4
# B3LYP/6-311++G(d,p) empiricaldispersion=gd3bj scf=xqc pop=npa geom=check

CID_115247346_JID_8405_Energie_anion

-1 2
