%chk=JID_4581.chk
%mem=8GB
%nprocshared=4
# opt freq B3LYP/6-31G(d) empiricaldispersion=gd3bj scf=xqc

CID_150691206_JID_4581_neutraal

0 1
C          2.17100       -0.69200        0.00000
C          0.98263       -1.43439        0.05264
C         -0.24250       -0.74863        0.06839
C         -0.24327        0.64003        0.03228
C          0.92877        1.40197       -0.01822
C          2.15455        0.71067       -0.03860
C          3.45300        1.48399       -0.08022
O          3.47682        2.38828       -1.18871
N          3.91384        1.70417       -2.33828
N          3.83997        2.40880       -3.36318
N          3.77625        3.05030       -4.30397
N         -1.56526        1.00026        0.05455
N         -2.41853       -0.03860        0.10885
C         -1.60943       -1.10154        0.11427
H          3.11836       -1.22823       -0.01700
H          1.01353       -2.51955        0.07801
H          0.89508        2.48707       -0.04847
H          3.53949        2.07743        0.83688
H          4.32618        0.82064       -0.11579
H         -1.95035        1.93731        0.03496
H         -2.04488       -2.09144        0.15163

--Link1--
%chk=JID_4581.chk
%mem=8GB
%nprocshared=4
# B3LYP/6-311++G(d,p) empiricaldispersion=gd3bj scf=xqc pop=npa geom=check

CID_150691206_JID_4581_Energie_neutraal

0 1

--Link1--
%chk=JID_4581.chk
%mem=8GB
%nprocshared=4
# B3LYP/6-311++G(d,p) empiricaldispersion=gd3bj scf=xqc pop=npa geom=check

CID_150691206_JID_4581_Energie_kation

1 2

--Link1--
%chk=JID_4581.chk
%mem=8GB
%nprocshared=4
# B3LYP/6-311++G(d,p) empiricaldispersion=gd3bj scf=xqc pop=npa geom=check

CID_150691206_JID_4581_Energie_anion

-1 2
