%chk=JID_6727.chk
%mem=8GB
%nprocshared=4
# opt freq B3LYP/6-31G(d) empiricaldispersion=gd3bj scf=xqc

CID_62901048_JID_6727_neutraal

0 1
C          0.92663       -0.01166       -0.06694
C          0.06660        1.18970       -0.45357
C          0.89023        2.47722       -0.67440
C          1.88751        2.19705       -1.82973
O          3.08204        1.97164       -1.66498
N          1.32930        2.18759       -3.08013
N          0.10438        3.71495       -1.04254
C          1.00857        4.89888       -0.98990
C          0.76962        5.88693       -2.14139
C         -0.52480        6.68523       -2.07677
O         -0.56876        7.42918       -0.86095
C         -1.74922        8.21560       -0.76822
C         -1.07116        3.93779       -0.15959
C         -2.40706        3.58943       -0.84714
O         -2.72687        2.20776       -0.70618
C         -3.93326        1.87347       -1.37763
H          1.58632       -0.31752       -0.88421
H          0.28659       -0.86610        0.17634
H          1.54067        0.21179        0.81122
H         -0.50517        0.93490       -1.35350
H         -0.64445        1.33043        0.36546
H          1.47044        2.68168        0.23574
H          0.44957        2.68011       -3.18630
H          1.96188        2.13697       -3.86532
H          0.97023        5.40027       -0.01411
H          2.05621        4.58846       -1.09248
H          1.60567        6.59864       -2.13300
H          0.82017        5.35618       -3.09982
H         -0.55662        7.38100       -2.92367
H         -1.39644        6.02851       -2.14696
H         -1.79193        8.94097       -1.58631
H         -2.63678        7.57567       -0.78411
H         -1.72731        8.75889        0.18019
H         -0.96558        3.42228        0.80154
H         -1.14815        5.00098        0.09571
H         -3.20477        4.17465       -0.37343
H         -2.37524        3.85954       -1.90938
H         -4.77217        2.44197       -0.96493
H         -3.83977        2.06449       -2.45102
H         -4.12612        0.80771       -1.22888

--Link1--
%chk=JID_6727.chk
%mem=8GB
%nprocshared=4
# B3LYP/6-311++G(d,p) empiricaldispersion=gd3bj scf=xqc pop=npa geom=check

CID_62901048_JID_6727_Energie_neutraal

0 1

--Link1--
%chk=JID_6727.chk
%mem=8GB
%nprocshared=4
# B3LYP/6-311++G(d,p) empiricaldispersion=gd3bj scf=xqc pop=npa geom=check

CID_62901048_JID_6727_Energie_kation

1 2

--Link1--
%chk=JID_6727.chk
%mem=8GB
%nprocshared=4
# B3LYP/6-311++G(d,p) empiricaldispersion=gd3bj scf=xqc pop=npa geom=check

CID_62901048_JID_6727_Energie_anion

-1 2
