%chk=JID_6888.chk
%mem=8GB
%nprocshared=4
# opt freq B3LYP/6-31G(d) empiricaldispersion=gd3bj scf=xqc

CID_128238445_JID_6888_neutraal

0 1
C          0.97034       -0.08349       -0.04636
C          0.46545       -0.10583       -1.50368
C          0.55205        1.29793       -2.13551
C          1.98794        1.79740       -2.25462
C          2.94912        0.77165       -2.81619
O          4.00404        1.09008       -3.35807
N          2.66222       -0.54659       -2.59655
C          1.32795       -1.05311       -2.34554
C         -0.99018       -0.60965       -1.50865
O         -1.56800       -1.00915       -0.50087
N         -1.59469       -0.60226       -2.76395
C         -3.00397       -0.11813       -2.86927
C         -3.21268       -1.15751       -3.98707
C         -2.02706       -1.90448       -3.34567
C         -2.96054       -0.62893       -5.39604
O         -4.48433       -1.84986       -3.95938
H          0.87599       -1.07178        0.41927
H          0.38612        0.61933        0.55894
H          2.02288        0.20629        0.02978
H          0.11530        1.28590       -3.14294
H         -0.04227        2.01675       -1.55771
H          2.36941        2.10972       -1.27633
H          2.00602        2.67600       -2.90952
H          3.34498       -1.17243       -3.00958
H          1.43096       -2.03358       -1.86684
H          0.88845       -1.22556       -3.33440
H         -3.59846       -0.27595       -1.96276
H         -3.06248        0.93092       -3.17261
H         -1.29337       -2.31852       -4.04278
H         -2.29088       -2.65661       -2.59404
H         -2.91836       -1.45217       -6.11715
H         -3.76468        0.04808       -5.70368
H         -2.01623       -0.07792       -5.46490
H         -4.37874       -2.61449       -4.55149

--Link1--
%chk=JID_6888.chk
%mem=8GB
%nprocshared=4
# B3LYP/6-311++G(d,p) empiricaldispersion=gd3bj scf=xqc pop=npa geom=check

CID_128238445_JID_6888_Energie_neutraal

0 1

--Link1--
%chk=JID_6888.chk
%mem=8GB
%nprocshared=4
# B3LYP/6-311++G(d,p) empiricaldispersion=gd3bj scf=xqc pop=npa geom=check

CID_128238445_JID_6888_Energie_kation

1 2

--Link1--
%chk=JID_6888.chk
%mem=8GB
%nprocshared=4
# B3LYP/6-311++G(d,p) empiricaldispersion=gd3bj scf=xqc pop=npa geom=check

CID_128238445_JID_6888_Energie_anion

-1 2
