%chk=JID_670.chk
%mem=8GB
%nprocshared=4
# opt freq B3LYP/6-31G(d) empiricaldispersion=gd3bj scf=xqc

CID_129911048_JID_670_neutraal

0 1
C          0.94143        0.07752        0.02366
C         -0.15549        1.14332        0.14453
C          0.36423        2.51373       -0.28556
N          0.48854        2.62034       -1.72131
C         -0.30031        1.96363       -2.61181
O         -0.26668        2.22144       -3.80863
N         -1.09644        0.98918       -2.10735
C         -1.39749        0.87759       -0.71544
N         -1.96021       -0.45475       -0.51599
O         -3.18082       -0.52419       -1.31217
H          1.26490       -0.06938       -1.01174
H          0.59629       -0.88699        0.40985
H          1.82067        0.36552        0.61030
H         -0.44680        1.19177        1.20174
H         -0.32988        3.30121        0.03051
H          1.34117        2.73632        0.15564
H          1.02813        3.37486       -2.12712
H         -1.77086        0.60816       -2.75515
H         -2.15977        1.63238       -0.48090
H         -1.34789       -1.11501       -1.00202
H         -3.82955       -0.85331       -0.65892

--Link1--
%chk=JID_670.chk
%mem=8GB
%nprocshared=4
# B3LYP/6-311++G(d,p) empiricaldispersion=gd3bj scf=xqc pop=npa geom=check

CID_129911048_JID_670_Energie_neutraal

0 1

--Link1--
%chk=JID_670.chk
%mem=8GB
%nprocshared=4
# B3LYP/6-311++G(d,p) empiricaldispersion=gd3bj scf=xqc pop=npa geom=check

CID_129911048_JID_670_Energie_kation

1 2

--Link1--
%chk=JID_670.chk
%mem=8GB
%nprocshared=4
# B3LYP/6-311++G(d,p) empiricaldispersion=gd3bj scf=xqc pop=npa geom=check

CID_129911048_JID_670_Energie_anion

-1 2
