%chk=JID_10106.chk
%mem=8GB
%nprocshared=4
# opt freq B3LYP/6-31G(d) empiricaldispersion=gd3bj scf=xqc

CID_88386389_JID_10106_neutraal

0 1
C          0.70300        1.24700       -0.25500
C         -0.70188        1.29523        0.33624
C         -1.47666        0.04201       -0.05031
N         -2.66797        0.04969       -0.57300
O         -3.15720        1.34184       -0.77173
C         -0.77951       -1.28453        0.28305
C          0.63867       -1.27606       -0.31783
C          1.43803       -0.04201        0.14575
C          2.87268       -0.01349       -0.35369
C          3.21877       -0.34674       -1.67127
C          4.54851       -0.28914       -2.09649
C          5.54881        0.11460       -1.21592
C          5.22059        0.46374        0.09090
C          3.89278        0.40182        0.51834
C         -1.53329       -2.54244       -0.12230
C         -1.84051       -2.81855       -1.46435
C         -2.51440       -3.98943       -1.81691
C         -2.88718       -4.90297       -0.83427
C         -2.58913       -4.64490        0.50158
C         -1.91696       -3.47304        0.85610
H          1.26351        2.12598        0.08706
H          0.64057        1.31898       -1.34901
H         -0.65248        1.32960        1.43083
H         -1.19690        2.21045        0.00387
H         -4.04586        1.17211       -1.13701
H         -0.67951       -1.28614        1.37799
H          0.57119       -1.28877       -1.41281
H          1.17223       -2.19087       -0.02703
H          1.47452       -0.08563        1.24406
H          2.46160       -0.65005       -2.38937
H          4.80183       -0.55639       -3.11920
H          6.58183        0.16168       -1.54956
H          5.99761        0.78719        0.77847
H          3.65945        0.68602        1.54231
H         -1.57212       -2.11186       -2.24658
H         -2.75285       -4.18374       -2.85912
H         -3.41354       -5.81288       -1.10902
H         -2.88178       -5.35572        1.26975
H         -1.69559       -3.29414        1.90572

--Link1--
%chk=JID_10106.chk
%mem=8GB
%nprocshared=4
# B3LYP/6-311++G(d,p) empiricaldispersion=gd3bj scf=xqc pop=npa geom=check

CID_88386389_JID_10106_Energie_neutraal

0 1

--Link1--
%chk=JID_10106.chk
%mem=8GB
%nprocshared=4
# B3LYP/6-311++G(d,p) empiricaldispersion=gd3bj scf=xqc pop=npa geom=check

CID_88386389_JID_10106_Energie_kation

1 2

--Link1--
%chk=JID_10106.chk
%mem=8GB
%nprocshared=4
# B3LYP/6-311++G(d,p) empiricaldispersion=gd3bj scf=xqc pop=npa geom=check

CID_88386389_JID_10106_Energie_anion

-1 2
