%chk=JID_8268.chk
%mem=8GB
%nprocshared=4
# opt freq B3LYP/6-31G(d) empiricaldispersion=gd3bj scf=xqc

CID_54956933_JID_8268_neutraal

0 1
C          1.05060       -0.07791        0.03702
C          0.63662       -0.30396        1.49613
C          1.49626        0.54053        2.44134
C         -0.84823       -0.03827        1.72921
C         -1.37710        1.21535        1.34729
C         -2.72286        1.53202        1.53287
C         -3.57350        0.60466        2.11455
C         -3.07237       -0.63451        2.50785
C         -1.71709       -0.97514        2.33166
N         -1.31449       -2.26636        2.72542
C         -1.81898       -3.34687        1.85480
C         -0.93125       -3.52555        0.61099
O          0.26836       -3.79259        0.75524
N         -1.51695       -3.39050       -0.64777
C         -2.83192       -2.80042       -0.85237
C         -0.70386       -3.58486       -1.82557
C         -0.08730       -4.92597       -2.13273
C         -1.19067       -4.40120       -2.99716
H          0.99017        0.97572       -0.25456
H          0.41347       -0.65202       -0.64388
H          2.08572       -0.40075       -0.12009
H          0.87373       -1.34889        1.70592
H          1.37797        1.61341        2.25407
H          1.22778        0.35249        3.48690
H          2.55713        0.29664        2.31890
H         -0.73182        1.97023        0.90265
H         -3.09887        2.50617        1.23213
H         -4.62032        0.84517        2.27569
H         -3.74398       -1.34391        2.98649
H         -0.30401       -2.35144        2.81537
H         -1.74693       -4.28731        2.41483
H         -2.87858       -3.22790        1.62065
H         -2.90167       -1.85861       -0.30374
H         -3.01071       -2.60117       -1.91290
H         -3.59232       -3.49690       -0.48830
H         -0.09293       -2.71362       -2.05182
H          0.92198       -4.93117       -2.52739
H         -0.30387       -5.75371       -1.46774
H         -2.15325       -4.89351       -2.92995
H         -0.93520       -4.05670       -3.99232

--Link1--
%chk=JID_8268.chk
%mem=8GB
%nprocshared=4
# B3LYP/6-311++G(d,p) empiricaldispersion=gd3bj scf=xqc pop=npa geom=check

CID_54956933_JID_8268_Energie_neutraal

0 1

--Link1--
%chk=JID_8268.chk
%mem=8GB
%nprocshared=4
# B3LYP/6-311++G(d,p) empiricaldispersion=gd3bj scf=xqc pop=npa geom=check

CID_54956933_JID_8268_Energie_kation

1 2

--Link1--
%chk=JID_8268.chk
%mem=8GB
%nprocshared=4
# B3LYP/6-311++G(d,p) empiricaldispersion=gd3bj scf=xqc pop=npa geom=check

CID_54956933_JID_8268_Energie_anion

-1 2
