%chk=JID_10674.chk
%mem=8GB
%nprocshared=4
# opt freq B3LYP/6-31G(d) empiricaldispersion=gd3bj scf=xqc

CID_72235794_JID_10674_neutraal

0 1
C          1.05913       -0.07906        0.01590
C          0.33389        0.07075        1.35417
C          0.70959        1.40919        1.99711
C         -1.19687       -0.02125        1.20429
C         -1.73405       -1.33254        0.59687
C         -1.31996       -2.62422        1.34802
C         -1.82721       -2.69889        2.80402
O         -2.59183       -1.86747        3.29309
N         -1.39276       -3.76628        3.57090
N         -0.67924       -4.86791        3.06943
O         -1.78090       -3.76793        0.60854
N         -3.19826       -1.24556        0.46389
C         -3.99803       -1.56827       -0.59474
O         -5.19846       -1.72543       -0.37780
C         -3.37917       -1.71655       -1.98773
C         -4.34569       -2.37999       -2.98467
C         -5.43796       -1.44679       -3.50701
C         -4.86480       -0.14132       -4.04251
C         -3.98623        0.54510       -3.00496
C         -2.86383       -0.37321       -2.52631
H          0.69749        0.65151       -0.71560
H          0.92067       -1.07997       -0.40362
H          2.13699        0.07226        0.13950
H          0.68062       -0.72116        2.02801
H          0.40153        2.25277        1.37000
H          0.22909        1.51941        2.97507
H          1.79206        1.47760        2.14910
H         -1.66052        0.15332        2.18269
H         -1.53937        0.81287        0.57563
H         -1.32985       -1.42393       -0.41383
H         -0.22734       -2.69067        1.37193
H         -1.79372       -3.82633        4.50663
H         -1.01027       -5.07796        2.11694
H          0.30731       -4.61718        2.97163
H         -2.75444       -3.68464        0.56851
H         -3.71899       -1.15330        1.33525
H         -2.53268       -2.40578       -1.87937
H         -3.76236       -2.73898       -3.84295
H         -4.81078       -3.26550       -2.53481
H         -6.15725       -1.22691       -2.71012
H         -5.99932       -1.95276       -4.30103
H         -5.68166        0.52749       -4.33612
H         -4.27634       -0.34263       -4.94610
H         -4.59861        0.85873       -2.15092
H         -3.55392        1.45506       -3.43665
H         -2.27519        0.16255       -1.77525
H         -2.18706       -0.56970       -3.36795

--Link1--
%chk=JID_10674.chk
%mem=8GB
%nprocshared=4
# B3LYP/6-311++G(d,p) empiricaldispersion=gd3bj scf=xqc pop=npa geom=check

CID_72235794_JID_10674_Energie_neutraal

0 1

--Link1--
%chk=JID_10674.chk
%mem=8GB
%nprocshared=4
# B3LYP/6-311++G(d,p) empiricaldispersion=gd3bj scf=xqc pop=npa geom=check

CID_72235794_JID_10674_Energie_kation

1 2

--Link1--
%chk=JID_10674.chk
%mem=8GB
%nprocshared=4
# B3LYP/6-311++G(d,p) empiricaldispersion=gd3bj scf=xqc pop=npa geom=check

CID_72235794_JID_10674_Energie_anion

-1 2
