%chk=JID_9816.chk
%mem=8GB
%nprocshared=4
# opt freq B3LYP/6-31G(d) empiricaldispersion=gd3bj scf=xqc

CID_103490234_JID_9816_neutraal

0 1
C          1.09370       -0.03428       -0.00673
C          1.03269       -1.28168        0.85561
O          1.94243       -1.23738        1.95368
C          3.31634       -1.22536        1.56297
C          4.18411       -1.87323        2.65546
C          3.78893       -3.33054        2.89831
O          5.60591       -1.76720        2.48895
C          6.15168       -1.76894        1.17368
C          6.08794       -3.10743        0.48493
C          5.53755       -3.22967       -0.79207
C          5.47459       -4.49065       -1.41826
C          5.93022       -5.67176       -0.81081
C          6.54340       -5.49829        0.44665
C          6.61396       -4.25188        1.08778
N          5.96530       -6.96537       -1.34209
C          4.98942       -7.43351       -2.31377
N          4.91694       -4.47890       -2.74898
O          5.69765       -4.29235       -3.69166
O          3.68471       -4.58336       -2.84066
H          0.96792        0.86438        0.60572
H          0.30990       -0.05542       -0.76952
H          2.05966        0.05365       -0.51357
H          0.02780       -1.37506        1.28025
H          1.21706       -2.18231        0.25912
H          3.44372       -1.75935        0.61586
H          3.62664       -0.18594        1.40806
H          3.97162       -1.34900        3.59590
H          3.81195       -3.91286        1.97277
H          4.47874       -3.80727        3.60252
H          2.77531       -3.40108        3.30590
H          5.69973       -0.97303        0.57224
H          7.21035       -1.49897        1.26982
H          5.15818       -2.35027       -1.31040
H          6.97638       -6.35456        0.96233
H          7.07577       -4.18384        2.07226
H          6.13048       -7.66869       -0.62351
H          5.07253       -8.52187       -2.40350
H          3.96654       -7.20836       -1.99626
H          5.18260       -7.02273       -3.30781

--Link1--
%chk=JID_9816.chk
%mem=8GB
%nprocshared=4
# B3LYP/6-311++G(d,p) empiricaldispersion=gd3bj scf=xqc pop=npa geom=check

CID_103490234_JID_9816_Energie_neutraal

0 1

--Link1--
%chk=JID_9816.chk
%mem=8GB
%nprocshared=4
# B3LYP/6-311++G(d,p) empiricaldispersion=gd3bj scf=xqc pop=npa geom=check

CID_103490234_JID_9816_Energie_kation

1 2

--Link1--
%chk=JID_9816.chk
%mem=8GB
%nprocshared=4
# B3LYP/6-311++G(d,p) empiricaldispersion=gd3bj scf=xqc pop=npa geom=check

CID_103490234_JID_9816_Energie_anion

-1 2
