%chk=JID_7130.chk
%mem=8GB
%nprocshared=4
# opt freq B3LYP/6-31G(d) empiricaldispersion=gd3bj scf=xqc

CID_83858168_JID_7130_neutraal

0 1
C          0.93850       -0.04667        0.06356
C          0.59748       -0.70715        1.36959
C          0.04771        0.05394        2.41657
C         -0.23223       -0.59387        3.63464
C          0.04655       -1.93903        3.82076
C          0.61294       -2.69026        2.78145
C          0.88658       -2.06241        1.56157
N         -0.30296       -2.33954        5.07426
C         -0.83075       -1.28303        5.68920
N         -0.73639       -0.16999        4.85859
C         -0.98669        1.25040        5.07328
C         -1.68124        1.97812        6.19206
C         -0.19108        2.01244        6.11810
C         -1.52424       -1.45678        7.03360
C         -0.81834       -0.75907        8.19655
C         -3.02748       -1.16944        6.95050
N         -1.44724       -2.90590        7.39575
H          0.26904        0.79695       -0.13485
H          0.82935       -0.74979       -0.76888
H          1.96990        0.31823        0.08777
H         -0.14764        1.11193        2.27572
H          0.83318       -3.74162        2.93060
H          1.33163       -2.64740        0.75924
H         -1.04217        1.78023        4.12331
H         -2.21675        2.88874        5.93353
H         -2.13694        1.48048        7.02919
H          0.39427        1.45452        6.83786
H          0.28451        2.93835        5.81054
H         -0.95625        0.31908        8.20414
H         -1.20371       -1.10850        9.16351
H          0.26198       -0.94964        8.18490
H         -3.52825       -1.85885        6.25774
H         -3.50990       -1.27781        7.92928
H         -3.25535       -0.16983        6.58085
H         -1.81701       -3.42436        6.59350
H         -0.45532       -3.15866        7.36582

--Link1--
%chk=JID_7130.chk
%mem=8GB
%nprocshared=4
# B3LYP/6-311++G(d,p) empiricaldispersion=gd3bj scf=xqc pop=npa geom=check

CID_83858168_JID_7130_Energie_neutraal

0 1

--Link1--
%chk=JID_7130.chk
%mem=8GB
%nprocshared=4
# B3LYP/6-311++G(d,p) empiricaldispersion=gd3bj scf=xqc pop=npa geom=check

CID_83858168_JID_7130_Energie_kation

1 2

--Link1--
%chk=JID_7130.chk
%mem=8GB
%nprocshared=4
# B3LYP/6-311++G(d,p) empiricaldispersion=gd3bj scf=xqc pop=npa geom=check

CID_83858168_JID_7130_Energie_anion

-1 2
