%chk=JID_4220.chk
%mem=8GB
%nprocshared=4
# opt freq B3LYP/6-31G(d) empiricaldispersion=gd3bj scf=xqc

CID_64513379_JID_4220_neutraal

0 1
C          1.02201        0.07766       -0.05903
C          0.75220        1.56846       -0.19792
C          1.02525        2.09857       -1.60934
C          0.86351        3.62573       -1.69641
C         -0.11918        3.88738       -2.83621
C         -0.02706        2.64220       -3.72213
C          0.08489        1.52529       -2.68467
C         -1.18289        2.49934       -4.66962
N         -2.17832        3.36337       -4.79011
C         -3.00630        2.86933       -5.75927
C         -2.51056        1.69426       -6.26109
N         -1.34622        1.47015       -5.57402
C         -0.48161        0.33906       -5.80713
O          1.16520        2.71610       -4.50597
H          0.36374       -0.50890       -0.70708
H          0.84867       -0.24223        0.97335
H          2.05927       -0.15803       -0.31730
H         -0.28659        1.77446        0.08744
H          1.38871        2.10372        0.51727
H          2.06109        1.85193       -1.87985
H          1.83366        4.08259       -1.92646
H          0.50736        4.07723       -0.76444
H          0.13674        4.81125       -3.36634
H         -1.12662        4.00397       -2.41668
H         -0.89815        1.29178       -2.25612
H          0.50478        0.60204       -3.09739
H         -3.91237        3.38759       -6.04553
H         -2.87455        1.02388       -7.02721
H         -0.84243       -0.49456       -5.19988
H         -0.52497        0.07599       -6.86810
H          0.54919        0.58083       -5.55070
H          1.06315        3.50563       -5.06868

--Link1--
%chk=JID_4220.chk
%mem=8GB
%nprocshared=4
# B3LYP/6-311++G(d,p) empiricaldispersion=gd3bj scf=xqc pop=npa geom=check

CID_64513379_JID_4220_Energie_neutraal

0 1

--Link1--
%chk=JID_4220.chk
%mem=8GB
%nprocshared=4
# B3LYP/6-311++G(d,p) empiricaldispersion=gd3bj scf=xqc pop=npa geom=check

CID_64513379_JID_4220_Energie_kation

1 2

--Link1--
%chk=JID_4220.chk
%mem=8GB
%nprocshared=4
# B3LYP/6-311++G(d,p) empiricaldispersion=gd3bj scf=xqc pop=npa geom=check

CID_64513379_JID_4220_Energie_anion

-1 2
