%chk=JID_2831.chk
%mem=8GB
%nprocshared=4
# opt freq B3LYP/6-31G(d) empiricaldispersion=gd3bj scf=xqc

CID_87524050_JID_2831_neutraal

0 1
C          1.04012       -0.09106       -0.00995
C          0.52714       -1.50131        0.25641
C          1.11630       -2.14655        1.50960
C          0.52650       -1.62404        2.79786
O         -0.03602       -2.31784        3.63288
O          0.75667       -0.26866        2.90208
N          0.21239        0.42731        4.09173
C         -1.31478        0.33978        4.12649
C         -1.73635        1.43219        3.16819
C         -0.80098        2.57098        3.51882
C          0.52573        1.91791        3.88264
C          0.85148       -0.11427        5.35393
H          0.58349        0.64325        0.65804
H          0.78549        0.20839       -1.03223
H          2.12799       -0.03549        0.09528
H         -0.56759       -1.48405        0.31147
H          0.79523       -2.12558       -0.60476
H          0.90233       -3.22218        1.47685
H          2.20568       -2.04102        1.54891
H         -1.63319        0.56425        5.15102
H         -1.66876       -0.64914        3.83531
H         -1.58338        1.11483        2.13002
H         -2.78821        1.70648        3.28818
H         -0.69426        3.28471        2.69612
H         -1.18829        3.12303        4.38333
H          1.26524        2.00121        3.07895
H          0.94174        2.33414        4.80540
H          0.46671       -1.11205        5.56756
H          1.93411       -0.13231        5.20126
H          0.59440        0.55358        6.18148

--Link1--
%chk=JID_2831.chk
%mem=8GB
%nprocshared=4
# B3LYP/6-311++G(d,p) empiricaldispersion=gd3bj scf=xqc pop=npa geom=check

CID_87524050_JID_2831_Energie_neutraal

0 1

--Link1--
%chk=JID_2831.chk
%mem=8GB
%nprocshared=4
# B3LYP/6-311++G(d,p) empiricaldispersion=gd3bj scf=xqc pop=npa geom=check

CID_87524050_JID_2831_Energie_kation

1 2

--Link1--
%chk=JID_2831.chk
%mem=8GB
%nprocshared=4
# B3LYP/6-311++G(d,p) empiricaldispersion=gd3bj scf=xqc pop=npa geom=check

CID_87524050_JID_2831_Energie_anion

-1 2
