%chk=JID_7634.chk
%mem=8GB
%nprocshared=4
# opt freq B3LYP/6-31G(d) empiricaldispersion=gd3bj scf=xqc

CID_106904559_JID_7634_neutraal

0 1
C          0.96305        0.07086        0.06011
C          0.02843       -1.13425        0.05583
C          0.54478       -2.33389        0.88541
C          0.87807       -1.95932        2.36428
C         -0.31643       -1.41808        3.16108
C          1.51724       -3.11790        3.13625
N         -0.47893       -3.38895        0.76668
C          0.08222       -4.73766        0.57889
C         -0.60454       -5.77990        1.44724
N          0.16138       -6.41545        2.36782
C         -0.44514       -7.29619        3.20505
C         -1.80789       -7.56759        3.15797
C         -2.58040       -6.91370        2.20266
C         -1.97385       -6.01194        1.33284
C          0.45367       -7.95934        4.20287
O          1.65688       -7.81252        4.32205
O         -0.20773       -8.79618        5.03235
H          0.98315        0.56175        1.03723
H          0.61954        0.81167       -0.66935
H          1.98338       -0.22003       -0.20826
H         -0.96402       -0.81662        0.39804
H         -0.09749       -1.45713       -0.98676
H          1.47611       -2.65720        0.39996
H          1.63575       -1.16635        2.34047
H         -0.77033       -0.55191        2.67195
H         -1.09328       -2.17576        3.30446
H          0.00657       -1.09452        4.15672
H          2.35738       -3.54543        2.57979
H          1.90492       -2.76656        4.09884
H          0.79601       -3.91104        3.34866
H         -1.05590       -3.38718        1.60527
H         -0.03471       -5.02772       -0.47171
H          1.15607       -4.77385        0.79646
H         -2.26725       -8.26857        3.84647
H         -3.64964       -7.09817        2.14235
H         -2.56310       -5.47911        0.59170
H          0.50721       -9.13761        5.61128

--Link1--
%chk=JID_7634.chk
%mem=8GB
%nprocshared=4
# B3LYP/6-311++G(d,p) empiricaldispersion=gd3bj scf=xqc pop=npa geom=check

CID_106904559_JID_7634_Energie_neutraal

0 1

--Link1--
%chk=JID_7634.chk
%mem=8GB
%nprocshared=4
# B3LYP/6-311++G(d,p) empiricaldispersion=gd3bj scf=xqc pop=npa geom=check

CID_106904559_JID_7634_Energie_kation

1 2

--Link1--
%chk=JID_7634.chk
%mem=8GB
%nprocshared=4
# B3LYP/6-311++G(d,p) empiricaldispersion=gd3bj scf=xqc pop=npa geom=check

CID_106904559_JID_7634_Energie_anion

-1 2
