%chk=JID_8803.chk
%mem=8GB
%nprocshared=4
# opt freq B3LYP/6-31G(d) empiricaldispersion=gd3bj scf=xqc

CID_82924187_JID_8803_neutraal

0 1
C          0.95891        0.05155        0.07519
C          1.10007       -1.12055        1.03650
N          2.35039       -0.97558        1.77863
C          2.41471       -1.87410        2.93698
C          3.73547       -1.69808        3.70018
N          3.76017       -0.76822        4.80588
C          3.23664        0.48156        5.00498
N          3.63167        0.92658        6.17458
N          4.41353       -0.06129        6.71154
N          4.49796       -1.09763        5.89109
S          2.19984        1.33275        3.92260
C          0.90728        1.98872        5.06105
C         -0.10572        2.79314        4.22779
C         -1.21587        1.97176        3.56577
C         -2.43386        1.78582        4.47029
C         -2.22994        0.84860        5.65538
C         -1.04496        1.18800        6.55679
C          0.29985        0.85868        5.90908
H          0.88388        1.00180        0.61493
H          0.05156       -0.06365       -0.52652
H          1.81144        0.11084       -0.60993
H          0.23617       -1.12611        1.71091
H          1.10522       -2.06102        0.47497
H          2.42658       -0.00574        2.09882
H          1.55754       -1.73027        3.60549
H          2.37191       -2.90498        2.56428
H          3.99272       -2.67876        4.12377
H          4.55875       -1.42274        3.03033
H          1.41426        2.69727        5.72747
H         -0.56328        3.55548        4.87217
H          0.41997        3.36661        3.45225
H         -0.84669        1.00480        3.20635
H         -1.55421        2.52138        2.67797
H         -3.25843        1.38919        3.86449
H         -2.77117        2.76350        4.83662
H         -2.13227       -0.18180        5.29119
H         -3.14323        0.86894        6.26337
H         -1.13846        0.57222        7.46066
H         -1.08453        2.23130        6.88956
H          0.20005       -0.06623        5.32621
H          1.00087        0.62785        6.72143

--Link1--
%chk=JID_8803.chk
%mem=8GB
%nprocshared=4
# B3LYP/6-311++G(d,p) empiricaldispersion=gd3bj scf=xqc pop=npa geom=check

CID_82924187_JID_8803_Energie_neutraal

0 1

--Link1--
%chk=JID_8803.chk
%mem=8GB
%nprocshared=4
# B3LYP/6-311++G(d,p) empiricaldispersion=gd3bj scf=xqc pop=npa geom=check

CID_82924187_JID_8803_Energie_kation

1 2

--Link1--
%chk=JID_8803.chk
%mem=8GB
%nprocshared=4
# B3LYP/6-311++G(d,p) empiricaldispersion=gd3bj scf=xqc pop=npa geom=check

CID_82924187_JID_8803_Energie_anion

-1 2
