%chk=JID_10540.chk
%mem=8GB
%nprocshared=4
# opt freq B3LYP/6-31G(d) empiricaldispersion=gd3bj scf=xqc

CID_64367944_JID_10540_neutraal

0 1
C          0.99554        0.07111        0.07017
C          0.45814        1.43550        0.26245
N         -0.71320        1.76054        0.77940
N         -0.83531        3.13599        0.75228
C          0.26840        3.60935        0.22078
N          1.11890        2.58446       -0.09547
C          2.35179        2.84654       -0.66410
C          2.67614        4.12938       -0.90397
N          1.84594        5.20279       -0.62698
C          0.68642        4.95206       -0.07388
S         -0.46243        6.21793        0.29696
C          0.56859        7.67690        0.21905
C          0.63637        8.33845       -1.02006
C          1.36153        9.52333       -1.16680
C          2.01773       10.07700       -0.07271
C          1.95466        9.44023        1.16621
C          1.24446        8.23579        1.31712
C          1.23532        7.66336        2.68002
O          1.17378        8.30727        3.71205
O          1.43552        6.33482        2.69825
H          1.18037       -0.12664       -0.99015
H          0.28443       -0.67662        0.43488
H          1.93309       -0.05754        0.61968
H          3.00476        2.01486       -0.89191
H          3.63717        4.38185       -1.34700
H          0.11919        7.93332       -1.88808
H          1.40384       10.01619       -2.13516
H          2.57348       11.00518       -0.18117
H          2.46203        9.88515        2.02077
H          1.43257        6.11154        3.65275

--Link1--
%chk=JID_10540.chk
%mem=8GB
%nprocshared=4
# B3LYP/6-311++G(d,p) empiricaldispersion=gd3bj scf=xqc pop=npa geom=check

CID_64367944_JID_10540_Energie_neutraal

0 1

--Link1--
%chk=JID_10540.chk
%mem=8GB
%nprocshared=4
# B3LYP/6-311++G(d,p) empiricaldispersion=gd3bj scf=xqc pop=npa geom=check

CID_64367944_JID_10540_Energie_kation

1 2

--Link1--
%chk=JID_10540.chk
%mem=8GB
%nprocshared=4
# B3LYP/6-311++G(d,p) empiricaldispersion=gd3bj scf=xqc pop=npa geom=check

CID_64367944_JID_10540_Energie_anion

-1 2
