%chk=JID_7527.chk
%mem=8GB
%nprocshared=4
# opt freq B3LYP/6-31G(d) empiricaldispersion=gd3bj scf=xqc

CID_107874345_JID_7527_neutraal

0 1
C          1.02088       -0.09755       -0.00695
C          0.58909       -1.54823       -0.32346
C          1.11553       -2.44276        0.81980
C         -0.95402       -1.57901       -0.31866
C          1.12737       -2.07050       -1.65946
C          0.78908       -3.33892       -2.12973
N          1.26391       -3.90132       -3.26798
C          2.14244       -3.19762       -4.01257
C          2.53388       -1.92385       -3.63523
C          2.01415       -1.35568       -2.46673
S          2.83732       -4.11440       -5.36672
C          3.00496       -2.94301       -6.80771
C          1.86388       -1.93148       -6.93628
C          4.37628       -2.25734       -6.71293
C          2.93789       -3.81746       -8.07712
O          2.14397       -4.71724       -8.31659
O          3.80487       -3.45319       -9.04745
H          0.60703        0.23763        0.95169
H          0.66946        0.60185       -0.77456
H          2.11081       -0.00547        0.06541
H          0.77704       -2.07741        1.79643
H          0.77042       -3.47843        0.72479
H          2.21196       -2.46203        0.83344
H         -1.36376       -0.98184       -1.14161
H         -1.34879       -2.59584       -0.42012
H         -1.35380       -1.17431        0.61875
H          0.11373       -3.98793       -1.57732
H          3.25707       -1.35429       -4.19925
H          2.34944       -0.35757       -2.20018
H          1.87669       -1.17272       -6.15069
H          1.93685       -1.39155       -7.88920
H          0.88427       -2.42341       -6.93003
H          5.19415       -2.98627       -6.77347
H          4.51997       -1.54843       -7.53716
H          4.51174       -1.68792       -5.79218
H          3.60973       -4.08103       -9.77577

--Link1--
%chk=JID_7527.chk
%mem=8GB
%nprocshared=4
# B3LYP/6-311++G(d,p) empiricaldispersion=gd3bj scf=xqc pop=npa geom=check

CID_107874345_JID_7527_Energie_neutraal

0 1

--Link1--
%chk=JID_7527.chk
%mem=8GB
%nprocshared=4
# B3LYP/6-311++G(d,p) empiricaldispersion=gd3bj scf=xqc pop=npa geom=check

CID_107874345_JID_7527_Energie_kation

1 2

--Link1--
%chk=JID_7527.chk
%mem=8GB
%nprocshared=4
# B3LYP/6-311++G(d,p) empiricaldispersion=gd3bj scf=xqc pop=npa geom=check

CID_107874345_JID_7527_Energie_anion

-1 2
