%chk=JID_10719.chk
%mem=8GB
%nprocshared=4
# opt freq B3LYP/6-31G(d) empiricaldispersion=gd3bj scf=xqc

CID_86178108_JID_10719_neutraal

0 1
C          0.33400        1.00600       -0.17300
C          0.68294       -0.46031        0.15538
C         -0.66055       -0.85389       -0.51667
C         -1.14513        0.58015       -0.15728
C         -1.38972       -2.03483        0.10987
O         -2.56879       -2.34677       -0.65068
C         -3.65717       -1.62914       -0.24259
C         -4.28404       -1.88134        0.97238
C         -5.39068       -1.11415        1.35184
C         -5.88894       -0.08966        0.52483
C         -5.25933        0.10824       -0.71765
C         -4.16618       -0.66855       -1.10789
C         -7.02317        0.75854        0.94669
C         -7.11132        1.25500        2.25985
C         -8.16897        2.08160        2.65678
C         -9.16289        2.43515        1.74267
C         -9.09785        1.95064        0.43523
C         -8.04135        1.11904        0.04590
C        -10.23919        3.29376        2.14216
N        -11.10845        3.99085        2.46520
H          0.68851        1.33473       -1.15668
H          0.62592        1.74470        0.57732
H          1.58489       -0.84983       -0.32390
H          0.73309       -0.66853        1.23070
H         -0.53986       -0.99369       -1.60115
H         -1.61483        0.66914        0.82943
H         -1.77500        1.07614       -0.89949
H         -0.74980       -2.92286        0.05408
H         -1.60356       -1.87083        1.17363
H         -3.92284       -2.67120        1.62412
H         -5.86830       -1.33205        2.30494
H         -5.60200        0.88941       -1.39274
H         -3.69231       -0.49898       -2.07054
H         -6.33866        1.01652        2.98907
H         -8.20170        2.45051        3.68032
H         -9.86374        2.21441       -0.29184
H         -8.02428        0.74762       -0.97761

--Link1--
%chk=JID_10719.chk
%mem=8GB
%nprocshared=4
# B3LYP/6-311++G(d,p) empiricaldispersion=gd3bj scf=xqc pop=npa geom=check

CID_86178108_JID_10719_Energie_neutraal

0 1

--Link1--
%chk=JID_10719.chk
%mem=8GB
%nprocshared=4
# B3LYP/6-311++G(d,p) empiricaldispersion=gd3bj scf=xqc pop=npa geom=check

CID_86178108_JID_10719_Energie_kation

1 2

--Link1--
%chk=JID_10719.chk
%mem=8GB
%nprocshared=4
# B3LYP/6-311++G(d,p) empiricaldispersion=gd3bj scf=xqc pop=npa geom=check

CID_86178108_JID_10719_Energie_anion

-1 2
