%chk=JID_10275.chk
%mem=8GB
%nprocshared=4
# opt freq B3LYP/6-31G(d) empiricaldispersion=gd3bj scf=xqc

CID_81243675_JID_10275_neutraal

0 1
C         -1.37000        2.16000        0.01100
N         -0.79035        0.85794        0.30618
C          0.59938        0.74660        0.61776
C          1.43649        1.87718        0.63771
C          2.77678        1.77506        1.01447
C          3.29529        0.54603        1.39527
C          2.47905       -0.58420        1.37105
C          1.13799       -0.51326        0.94848
C          0.28275       -1.72427        0.88614
C         -1.02399       -1.55418        0.64777
C         -1.63345       -0.24087        0.34887
O         -2.84499       -0.20010        0.13809
N          0.84777       -2.97730        1.12607
C          1.77692       -3.60280        0.16365
C          2.50181       -4.78093        0.84937
C          3.69070       -5.27987        0.01821
O          3.24906       -5.96371       -1.16084
C          2.44380       -7.09003       -0.78727
C          1.22229       -6.62675        0.00243
O          1.59940       -5.86759        1.15952
H         -1.25202        2.81622        0.87914
H         -0.87436        2.58991       -0.86510
H         -2.43835        2.08979       -0.21285
H          1.06701        2.86344        0.37530
H          3.40686        2.66064        1.02921
H          4.33002        0.46295        1.71675
H          2.90007       -1.52934        1.70308
H         -1.71338       -2.38865        0.61827
H          0.13245       -3.66761        1.36639
H          1.20358       -3.93193       -0.70877
H          2.51324       -2.87275       -0.18732
H          2.88984       -4.42572        1.81203
H          4.30521       -5.97108        0.60792
H          4.33273       -4.44819       -0.28940
H          2.13556       -7.60639       -1.70111
H          3.05639       -7.77999       -0.19497
H          0.64708       -7.49251        0.34492
H          0.56132       -6.01827       -0.62229

--Link1--
%chk=JID_10275.chk
%mem=8GB
%nprocshared=4
# B3LYP/6-311++G(d,p) empiricaldispersion=gd3bj scf=xqc pop=npa geom=check

CID_81243675_JID_10275_Energie_neutraal

0 1

--Link1--
%chk=JID_10275.chk
%mem=8GB
%nprocshared=4
# B3LYP/6-311++G(d,p) empiricaldispersion=gd3bj scf=xqc pop=npa geom=check

CID_81243675_JID_10275_Energie_kation

1 2

--Link1--
%chk=JID_10275.chk
%mem=8GB
%nprocshared=4
# B3LYP/6-311++G(d,p) empiricaldispersion=gd3bj scf=xqc pop=npa geom=check

CID_81243675_JID_10275_Energie_anion

-1 2
