%chk=JID_6365.chk
%mem=8GB
%nprocshared=4
# opt freq B3LYP/6-31G(d) empiricaldispersion=gd3bj scf=xqc

CID_130420312_JID_6365_neutraal

0 1
C          0.93838        0.04725       -0.06301
C          0.25902       -0.64823        1.12617
C          0.71009        0.03557        2.42084
C         -1.25972       -0.56730        0.93382
O          0.73141       -2.01624        1.06755
C          0.28247       -2.94253        1.94234
O         -0.47257       -2.74507        2.88435
N          0.78324       -4.19272        1.70373
C          1.45530       -4.60754        0.46828
C          2.45698       -5.73308        0.73737
C          1.74530       -7.02282        1.11063
N          0.66910       -7.35737        0.20671
C         -0.12084       -6.42008       -0.40049
O         -1.23958       -6.72088       -0.81580
C          0.48194       -5.03254       -0.64757
O         -0.53626       -4.05753       -0.85770
H          0.66233        1.10493       -0.12835
H          0.66687       -0.44071       -1.00654
H          2.02966       -0.02130        0.01678
H          0.49153        1.10867        2.40196
H          0.21248       -0.38583        3.29952
H          1.78664       -0.09805        2.57628
H         -1.57201       -1.14393        0.05590
H         -1.80340       -0.97835        1.78971
H         -1.58989        0.46924        0.80560
H          0.31863       -4.88251        2.27853
H          2.01725       -3.73826        0.10622
H          3.05471       -5.90138       -0.16762
H          3.15385       -5.45148        1.53529
H          1.31092       -6.94907        2.11351
H          2.44658       -7.86325        1.11622
H          0.19347       -8.24361        0.34289
H          1.03997       -5.11504       -1.58904
H         -1.28502       -4.53559       -1.26724

--Link1--
%chk=JID_6365.chk
%mem=8GB
%nprocshared=4
# B3LYP/6-311++G(d,p) empiricaldispersion=gd3bj scf=xqc pop=npa geom=check

CID_130420312_JID_6365_Energie_neutraal

0 1

--Link1--
%chk=JID_6365.chk
%mem=8GB
%nprocshared=4
# B3LYP/6-311++G(d,p) empiricaldispersion=gd3bj scf=xqc pop=npa geom=check

CID_130420312_JID_6365_Energie_kation

1 2

--Link1--
%chk=JID_6365.chk
%mem=8GB
%nprocshared=4
# B3LYP/6-311++G(d,p) empiricaldispersion=gd3bj scf=xqc pop=npa geom=check

CID_130420312_JID_6365_Energie_anion

-1 2
