%chk=JID_2443.chk
%mem=8GB
%nprocshared=4
# opt freq B3LYP/6-31G(d) empiricaldispersion=gd3bj scf=xqc

CID_107752586_JID_2443_neutraal

0 1
C          1.02534       -0.07546        0.06053
C          0.43873       -0.08502        1.48063
C          0.46626        1.35423        2.01751
C         -0.98681       -0.70963        1.51771
C         -1.09755       -2.05273        0.80541
S         -1.76582       -0.69242        3.20279
C         -1.32983       -2.27608        4.05304
C         -2.11667       -3.47261        3.51801
C          0.15924       -2.58213        4.19455
C          0.75005       -1.92683        5.42611
O          0.77334       -2.52198        6.50513
C          1.25276       -0.51434        5.30982
H          0.35800        0.43662       -0.64081
H          1.20050       -1.09165       -0.30576
H          1.99315        0.43788        0.04118
H          1.11952       -0.68018        2.09494
H         -0.21413        1.99983        1.45186
H          0.18626        1.40477        3.07285
H          1.47381        1.77772        1.93794
H         -1.63240       -0.02387        0.95240
H         -0.37557       -2.77830        1.18966
H         -2.10969       -2.46318        0.87982
H         -0.90303       -1.94180       -0.26688
H         -1.72833       -2.10922        5.06274
H         -1.67869       -3.89736        2.61283
H         -2.11557       -4.27720        4.26335
H         -3.16379       -3.21981        3.32128
H          0.30580       -3.66127        4.33948
H          0.75060       -2.33301        3.31412
H          1.87783       -0.41288        4.42009
H          0.41094        0.17866        5.26840
H          1.86583       -0.27441        6.18351

--Link1--
%chk=JID_2443.chk
%mem=8GB
%nprocshared=4
# B3LYP/6-311++G(d,p) empiricaldispersion=gd3bj scf=xqc pop=npa geom=check

CID_107752586_JID_2443_Energie_neutraal

0 1

--Link1--
%chk=JID_2443.chk
%mem=8GB
%nprocshared=4
# B3LYP/6-311++G(d,p) empiricaldispersion=gd3bj scf=xqc pop=npa geom=check

CID_107752586_JID_2443_Energie_kation

1 2

--Link1--
%chk=JID_2443.chk
%mem=8GB
%nprocshared=4
# B3LYP/6-311++G(d,p) empiricaldispersion=gd3bj scf=xqc pop=npa geom=check

CID_107752586_JID_2443_Energie_anion

-1 2
