%chk=JID_9889.chk
%mem=8GB
%nprocshared=4
# opt freq B3LYP/6-31G(d) empiricaldispersion=gd3bj scf=xqc

CID_138788458_JID_9889_neutraal

0 1
C          0.96015        0.08209       -0.04090
C          0.10599        1.11317       -0.81029
C         -0.07286        0.56819       -2.24514
C         -1.26363        1.20528       -0.09594
O         -1.64726        2.08418        0.66374
O         -2.06707        0.14090       -0.31691
N          0.84968        2.42123       -0.83630
C          1.13975        3.09008        0.46528
C          2.62487        3.40167        0.65104
O          3.04662        4.38248        1.25538
O          3.41680        2.40635        0.15334
C          4.81591        2.63119        0.31616
C          0.55830        3.36371       -1.83490
C         -0.72062        3.89875       -2.03864
C         -0.93479        4.84489       -3.04114
C          0.10734        5.28210       -3.84741
C          1.38627        4.77172       -3.64723
C          1.60724        3.82195       -2.64671
O         -2.17205        5.37778       -3.26046
H          0.51142       -0.91750       -0.08413
H          1.05563        0.33024        1.02107
H          1.97021        0.01349       -0.46045
H         -0.43299       -0.46746       -2.24073
H         -0.80791        1.14760       -2.81408
H          0.87366        0.58239       -2.79794
H         -2.86633        0.32823        0.21936
H          0.58028        4.02978        0.55945
H          0.85179        2.46560        1.31658
H          5.11470        3.57261       -0.15545
H          5.08076        2.62612        1.37782
H          5.34932        1.81422       -0.17788
H         -1.54559        3.59421       -1.40632
H         -0.07511        6.02124       -4.62181
H          2.21148        5.11086       -4.26701
H          2.60974        3.42455       -2.50506
H         -2.78471        5.01826       -2.59812

--Link1--
%chk=JID_9889.chk
%mem=8GB
%nprocshared=4
# B3LYP/6-311++G(d,p) empiricaldispersion=gd3bj scf=xqc pop=npa geom=check

CID_138788458_JID_9889_Energie_neutraal

0 1

--Link1--
%chk=JID_9889.chk
%mem=8GB
%nprocshared=4
# B3LYP/6-311++G(d,p) empiricaldispersion=gd3bj scf=xqc pop=npa geom=check

CID_138788458_JID_9889_Energie_kation

1 2

--Link1--
%chk=JID_9889.chk
%mem=8GB
%nprocshared=4
# B3LYP/6-311++G(d,p) empiricaldispersion=gd3bj scf=xqc pop=npa geom=check

CID_138788458_JID_9889_Energie_anion

-1 2
