%chk=JID_8859.chk
%mem=8GB
%nprocshared=4
# opt freq B3LYP/6-31G(d) empiricaldispersion=gd3bj scf=xqc

CID_99824955_JID_8859_neutraal

0 1
C          0.92132        0.05439        0.02918
C          0.49365        1.41521        0.59934
C          0.85562        2.52061       -0.40281
C         -1.04162        1.36116        0.82594
O         -1.59862        1.37371        1.91654
O         -1.69427        1.27846       -0.40823
C         -3.09306        1.24818       -0.41118
C         -3.71198        0.31579       -1.23275
C         -5.11065        0.29491       -1.31440
C         -5.78840       -0.63896       -2.11789
C         -7.18046       -0.63539       -2.17985
C         -7.89908        0.29910       -1.44283
C         -7.22247        1.22783       -0.64623
C         -5.83689        1.24795       -0.56419
N         -5.23381        2.16592        0.21357
C         -3.88138        2.15220        0.27975
O          1.25862        1.55538        1.80521
C          1.12794        2.79390        2.49007
H          0.44155       -0.16394       -0.93079
H          0.66338       -0.75361        0.72433
H          2.00777        0.01326       -0.11107
H          0.47462        2.30480       -1.40694
H          0.42993        3.48343       -0.09829
H          1.94155        2.65123       -0.46819
H         -3.11151       -0.38811       -1.80102
H         -5.23526       -1.37471       -2.69710
H         -7.70210       -1.35985       -2.80006
H         -8.98525        0.31058       -1.48276
H         -7.79123        1.95589       -0.07253
H         -3.45172        2.91904        0.91659
H          1.64626        3.58822        1.94583
H          0.08346        3.07033        2.65017
H          1.60878        2.69072        3.46696

--Link1--
%chk=JID_8859.chk
%mem=8GB
%nprocshared=4
# B3LYP/6-311++G(d,p) empiricaldispersion=gd3bj scf=xqc pop=npa geom=check

CID_99824955_JID_8859_Energie_neutraal

0 1

--Link1--
%chk=JID_8859.chk
%mem=8GB
%nprocshared=4
# B3LYP/6-311++G(d,p) empiricaldispersion=gd3bj scf=xqc pop=npa geom=check

CID_99824955_JID_8859_Energie_kation

1 2

--Link1--
%chk=JID_8859.chk
%mem=8GB
%nprocshared=4
# B3LYP/6-311++G(d,p) empiricaldispersion=gd3bj scf=xqc pop=npa geom=check

CID_99824955_JID_8859_Energie_anion

-1 2
