%chk=JID_2218.chk
%mem=8GB
%nprocshared=4
# opt freq B3LYP/6-31G(d) empiricaldispersion=gd3bj scf=xqc

CID_106672617_JID_2218_neutraal

0 1
C          0.33400        1.00600       -0.17300
C          0.78594       -0.45723       -0.00926
C         -0.65042       -0.87662       -0.43484
C         -1.10181        0.51521        0.09450
C         -1.15987       -2.13470        0.26457
N         -2.48160       -2.58199       -0.15090
C         -3.62254       -1.74049        0.19043
C         -4.74616       -2.30550       -0.67572
C         -4.01436       -2.63953       -1.97743
C         -2.62317       -3.09011       -1.51809
O         -3.93135       -1.45087       -2.78569
O         -5.78934       -1.36129       -0.88904
H          0.48374        1.40392       -1.18321
H          0.73868        1.71429        0.55393
H          1.59086       -0.78054       -0.67459
H          1.05215       -0.71851        1.02199
H         -0.72386       -0.94231       -1.52936
H         -1.38108        0.53059        1.15442
H         -1.87810        1.01886       -0.48732
H         -0.45283       -2.95379        0.08068
H         -1.15839       -1.98934        1.35223
H         -3.87385       -1.80296        1.25419
H         -3.46758       -0.68523       -0.05227
H         -5.16278       -3.21120       -0.21963
H         -4.53989       -3.39916       -2.56290
H         -1.84699       -2.73450       -2.20244
H         -2.57554       -4.18369       -1.47984
H         -3.24111       -0.88365       -2.39483
H         -5.61673       -0.96933       -1.76948

--Link1--
%chk=JID_2218.chk
%mem=8GB
%nprocshared=4
# B3LYP/6-311++G(d,p) empiricaldispersion=gd3bj scf=xqc pop=npa geom=check

CID_106672617_JID_2218_Energie_neutraal

0 1

--Link1--
%chk=JID_2218.chk
%mem=8GB
%nprocshared=4
# B3LYP/6-311++G(d,p) empiricaldispersion=gd3bj scf=xqc pop=npa geom=check

CID_106672617_JID_2218_Energie_kation

1 2

--Link1--
%chk=JID_2218.chk
%mem=8GB
%nprocshared=4
# B3LYP/6-311++G(d,p) empiricaldispersion=gd3bj scf=xqc pop=npa geom=check

CID_106672617_JID_2218_Energie_anion

-1 2
