%chk=JID_4440.chk
%mem=8GB
%nprocshared=4
# opt freq B3LYP/6-31G(d) empiricaldispersion=gd3bj scf=xqc

CID_107226597_JID_4440_neutraal

0 1
C          0.50700        1.57800        0.12600
C          1.21290        0.25484        0.43207
N          0.97910       -0.89109       -0.42999
C         -0.28290       -1.60687       -0.21580
C         -1.59693       -0.81078       -0.35227
N         -1.62707        0.36236        0.53306
C         -1.00489        1.53116       -0.09339
C         -2.04495        0.31294        1.84975
N         -2.51181       -0.64285        2.60266
O         -2.58165       -1.88894        1.98800
N         -1.95777        1.50822        2.50152
C          1.57161       -0.90101       -1.76082
C          0.71661       -0.47914       -2.96571
O          0.47215        0.92072       -2.99518
H          0.97859        2.06528       -0.73478
H          0.70678        2.25046        0.97107
H          2.29265        0.45398        0.45982
H          0.97787       -0.03223        1.46624
H         -0.24131       -2.03737        0.79255
H         -0.32956       -2.47375       -0.88707
H         -2.46279       -1.45942       -0.19382
H         -1.71802       -0.49307       -1.39421
H         -1.46156        2.46516        0.25697
H         -1.21429        1.53618       -1.16920
H         -2.99729       -2.43259        2.68065
H         -1.03683        1.91530        2.44415
H         -2.20795        1.36445        3.47442
H          2.48900       -0.29883       -1.75314
H          1.90237       -1.93046       -1.94957
H          1.24570       -0.73555       -3.89037
H         -0.23948       -1.00751       -2.99450
H          1.33822        1.36285       -3.00579

--Link1--
%chk=JID_4440.chk
%mem=8GB
%nprocshared=4
# B3LYP/6-311++G(d,p) empiricaldispersion=gd3bj scf=xqc pop=npa geom=check

CID_107226597_JID_4440_Energie_neutraal

0 1

--Link1--
%chk=JID_4440.chk
%mem=8GB
%nprocshared=4
# B3LYP/6-311++G(d,p) empiricaldispersion=gd3bj scf=xqc pop=npa geom=check

CID_107226597_JID_4440_Energie_kation

1 2

--Link1--
%chk=JID_4440.chk
%mem=8GB
%nprocshared=4
# B3LYP/6-311++G(d,p) empiricaldispersion=gd3bj scf=xqc pop=npa geom=check

CID_107226597_JID_4440_Energie_anion

-1 2
