%chk=JID_4197.chk
%mem=8GB
%nprocshared=4
# opt freq B3LYP/6-31G(d) empiricaldispersion=gd3bj scf=xqc

CID_131116469_JID_4197_neutraal

0 1
C          1.04628        0.03328       -0.08216
C          0.63771        1.14117       -1.00936
C          0.05744        0.89088       -2.19768
C         -0.37558        2.00174       -3.10843
C         -0.42595        3.35663       -2.39372
N          0.78981        3.54226       -1.58703
C          0.93091        2.54448       -0.51029
C          1.07874        4.83103       -1.22690
N          0.21948        5.85727       -1.23897
N          0.94350        6.90261       -0.79932
C          2.24842        6.60825       -0.53931
C          2.37520        5.27618       -0.82061
N          3.52593        4.57405       -0.75736
C          0.30671        8.18965       -0.66417
H          0.79505       -0.95404       -0.48381
H          0.53853        0.13965        0.88195
H          2.12740        0.05853        0.08845
H         -0.11453       -0.12668       -2.53533
H         -1.36576        1.77635       -3.51980
H          0.32495        2.04868       -3.95088
H         -1.31724        3.41441       -1.75402
H         -0.51761        4.13745       -3.15992
H          1.95175        2.55462       -0.11368
H          0.24640        2.77816        0.31585
H          2.95256        7.35307       -0.20109
H          3.55730        3.70972       -1.29525
H          4.41327        5.06525       -0.76425
H         -0.07815        8.48905       -1.64228
H         -0.50823        8.09659        0.05810
H          1.03629        8.92232       -0.31045

--Link1--
%chk=JID_4197.chk
%mem=8GB
%nprocshared=4
# B3LYP/6-311++G(d,p) empiricaldispersion=gd3bj scf=xqc pop=npa geom=check

CID_131116469_JID_4197_Energie_neutraal

0 1

--Link1--
%chk=JID_4197.chk
%mem=8GB
%nprocshared=4
# B3LYP/6-311++G(d,p) empiricaldispersion=gd3bj scf=xqc pop=npa geom=check

CID_131116469_JID_4197_Energie_kation

1 2

--Link1--
%chk=JID_4197.chk
%mem=8GB
%nprocshared=4
# B3LYP/6-311++G(d,p) empiricaldispersion=gd3bj scf=xqc pop=npa geom=check

CID_131116469_JID_4197_Energie_anion

-1 2
