%chk=JID_4527.chk
%mem=8GB
%nprocshared=4
# opt freq B3LYP/6-31G(d) empiricaldispersion=gd3bj scf=xqc

CID_116906342_JID_4527_neutraal

0 1
C          1.05242        0.07147       -0.04630
N          1.09371       -1.38983       -0.07796
C         -0.21806       -1.91821        0.30990
C          1.55746       -2.00162       -1.36317
C          1.12859       -1.26611       -2.66739
C          1.96791       -0.07784       -3.14439
C          1.50027        0.10987       -4.58046
C          1.36943       -1.30794       -5.11613
C          1.12018       -2.19765       -3.89778
C          3.08979       -2.34290       -1.29884
C          3.38463       -3.50780       -0.35193
C          4.87462       -3.39143       -0.08306
C          5.21838       -1.94356       -0.39613
N          3.95968       -1.28054       -0.74815
H          0.84170        0.41448        0.97374
H          0.27580        0.48775       -0.69688
H          2.01183        0.52002       -0.31491
H         -0.99516       -1.67405       -0.42284
H         -0.17818       -3.00719        0.42550
H         -0.52445       -1.51917        1.28364
H          1.07463       -2.98891       -1.42731
H          0.09068       -0.92440       -2.54375
H          1.80479        0.83216       -2.56353
H          3.03878       -0.30361       -3.14104
H          2.19625        0.71351       -5.17022
H          0.52336        0.60783       -4.59604
H          2.29878       -1.61313       -5.61106
H          0.56400       -1.38660       -5.85307
H          1.89397       -2.97038       -3.84419
H          0.15842       -2.71657       -3.97951
H          3.45465       -2.60305       -2.29991
H          2.83487       -3.41356        0.59242
H          3.12668       -4.47523       -0.79460
H          5.10831       -3.65596        0.95319
H          5.43640       -4.06473       -0.74032
H          5.69540       -1.44619        0.45440
H          5.91325       -1.89015       -1.24158
H          3.50188       -0.97651        0.11615

--Link1--
%chk=JID_4527.chk
%mem=8GB
%nprocshared=4
# B3LYP/6-311++G(d,p) empiricaldispersion=gd3bj scf=xqc pop=npa geom=check

CID_116906342_JID_4527_Energie_neutraal

0 1

--Link1--
%chk=JID_4527.chk
%mem=8GB
%nprocshared=4
# B3LYP/6-311++G(d,p) empiricaldispersion=gd3bj scf=xqc pop=npa geom=check

CID_116906342_JID_4527_Energie_kation

1 2

--Link1--
%chk=JID_4527.chk
%mem=8GB
%nprocshared=4
# B3LYP/6-311++G(d,p) empiricaldispersion=gd3bj scf=xqc pop=npa geom=check

CID_116906342_JID_4527_Energie_anion

-1 2
