%chk=JID_7697.chk
%mem=8GB
%nprocshared=4
# opt freq B3LYP/6-31G(d) empiricaldispersion=gd3bj scf=xqc

CID_105156801_JID_7697_neutraal

0 1
C          0.98823       -0.03005        0.09465
C          0.65700        0.58699       -1.26270
C          1.64794        0.13972       -2.33811
C         -0.77565        0.37803       -1.68227
C         -1.47917       -0.80700       -1.91181
S         -3.03753       -0.34289       -2.49070
N         -2.74107        1.28487       -2.31863
N         -1.51855        1.54017       -1.89842
C         -1.07090       -2.24647       -1.77905
C         -1.58358       -2.93233       -0.49290
C         -3.08935       -3.16003       -0.27579
C         -3.80350       -4.24716       -1.07949
C         -3.23090       -5.64874       -0.97970
C         -3.92342       -6.32329       -2.14076
C         -3.98463       -5.21944       -3.18040
O         -3.84986       -3.96371       -2.48382
N         -1.32968       -3.00202       -2.99881
H          0.97355       -1.12329        0.06567
H          0.27206        0.29373        0.85792
H          1.98808        0.27563        0.42178
H          0.79797        1.67142       -1.14681
H          1.62861       -0.94287       -2.49404
H          1.42299        0.61615       -3.29894
H          2.67051        0.41573       -2.05886
H          0.02013       -2.25554       -1.68532
H         -1.06128       -3.88985       -0.37618
H         -1.24179       -2.32124        0.35490
H         -3.21696       -3.41765        0.78474
H         -3.62115       -2.21412       -0.41109
H         -4.84829       -4.26884       -0.73878
H         -2.15037       -5.66122       -1.15476
H         -3.43601       -6.12796       -0.01869
H         -3.40639       -7.21707       -2.50056
H         -4.93938       -6.61805       -1.85188
H         -3.15775       -5.29766       -3.89326
H         -4.92577       -5.22700       -3.73793
H         -1.00704       -3.95932       -2.87796
H         -2.34915       -3.09068       -3.10268

--Link1--
%chk=JID_7697.chk
%mem=8GB
%nprocshared=4
# B3LYP/6-311++G(d,p) empiricaldispersion=gd3bj scf=xqc pop=npa geom=check

CID_105156801_JID_7697_Energie_neutraal

0 1

--Link1--
%chk=JID_7697.chk
%mem=8GB
%nprocshared=4
# B3LYP/6-311++G(d,p) empiricaldispersion=gd3bj scf=xqc pop=npa geom=check

CID_105156801_JID_7697_Energie_kation

1 2

--Link1--
%chk=JID_7697.chk
%mem=8GB
%nprocshared=4
# B3LYP/6-311++G(d,p) empiricaldispersion=gd3bj scf=xqc pop=npa geom=check

CID_105156801_JID_7697_Energie_anion

-1 2
