%chk=JID_5685.chk
%mem=8GB
%nprocshared=4
# opt freq B3LYP/6-31G(d) empiricaldispersion=gd3bj scf=xqc

CID_139530519_JID_5685_neutraal

0 1
C          0.33400        1.00600       -0.17300
C          0.70107       -0.07591        0.86162
C          0.15422       -1.11451       -0.15379
C         -0.73494        0.02616       -0.70345
C         -0.54726       -2.29958        0.49011
N         -1.85520       -2.38438        0.61930
C         -2.09817       -3.61925        1.15921
C         -0.92054       -4.28391        1.39883
N          0.06288       -3.41907        1.00171
C          1.48803       -3.62999        1.18067
C          1.97554       -3.12593        2.54220
N          1.54751       -3.96106        3.65016
C          2.11359       -5.13579        4.01183
O          1.70692       -5.86982        4.89381
O          3.19593       -5.45377        3.28801
H          1.13116        1.22093       -0.89399
H         -0.04080        1.94704        0.23678
H          1.76771       -0.15408        1.09071
H          0.13900        0.00228        1.79959
H          0.97610       -1.43008       -0.81064
H         -1.70741        0.14681       -0.21045
H         -0.88577        0.03510       -1.78592
H         -3.10672       -3.96198        1.35057
H         -0.70977       -5.25532        1.82426
H          1.68299       -4.69986        1.04823
H          2.00677       -3.09961        0.37622
H          3.07019       -3.08618        2.54429
H          1.60575       -2.11678        2.74997
H          0.68509       -3.73770        4.13251
H          3.48116       -6.30152        3.68767

--Link1--
%chk=JID_5685.chk
%mem=8GB
%nprocshared=4
# B3LYP/6-311++G(d,p) empiricaldispersion=gd3bj scf=xqc pop=npa geom=check

CID_139530519_JID_5685_Energie_neutraal

0 1

--Link1--
%chk=JID_5685.chk
%mem=8GB
%nprocshared=4
# B3LYP/6-311++G(d,p) empiricaldispersion=gd3bj scf=xqc pop=npa geom=check

CID_139530519_JID_5685_Energie_kation

1 2

--Link1--
%chk=JID_5685.chk
%mem=8GB
%nprocshared=4
# B3LYP/6-311++G(d,p) empiricaldispersion=gd3bj scf=xqc pop=npa geom=check

CID_139530519_JID_5685_Energie_anion

-1 2
