%chk=JID_8777.chk
%mem=8GB
%nprocshared=4
# opt freq B3LYP/6-31G(d) empiricaldispersion=gd3bj scf=xqc

CID_152045500_JID_8777_neutraal

0 1
C          0.92642       -0.01320        0.06642
C          0.92736       -1.28115        0.90712
C          1.33020       -1.04988        2.36660
C          0.51655        0.01153        3.11558
C         -0.99836       -0.21487        3.11904
C         -1.46119       -1.41201        3.95578
C         -1.41011       -1.19196        5.47272
C         -2.30112       -0.07598        6.03422
S         -4.07172       -0.50807        6.13534
C         -4.58455       -0.21840        4.46652
N         -5.32154       -1.18195        3.88860
C         -5.67861       -0.97869        2.60172
C         -5.32384        0.13279        1.85734
C         -4.59452        1.06483        2.57068
N         -4.20780        0.91871        3.85958
N         -5.68922        0.37144        0.52156
N         -5.54977       -0.61719       -0.22471
N         -5.42911       -1.52363       -0.90507
H          0.15193        0.68834        0.38907
H          0.73042       -0.25959       -0.98218
H          1.89610        0.49188        0.11891
H         -0.06007       -1.75329        0.85615
H          1.63082       -1.99643        0.46380
H          1.27333       -2.00505        2.90139
H          2.38613       -0.75210        2.39499
H          0.88736        0.07785        4.14473
H          0.71848        0.99198        2.66729
H         -1.47687        0.70297        3.47200
H         -1.35623       -0.34824        2.09246
H         -2.47824       -1.68083        3.65767
H         -0.85264       -2.28989        3.71064
H         -1.65408       -2.13845        5.97235
H         -0.37381       -0.97084        5.75556
H         -1.98995        0.09851        7.07096
H         -2.15528        0.87702        5.51940
H         -6.28576       -1.77431        2.17859
H         -4.28019        1.99450        2.10322

--Link1--
%chk=JID_8777.chk
%mem=8GB
%nprocshared=4
# B3LYP/6-311++G(d,p) empiricaldispersion=gd3bj scf=xqc pop=npa geom=check

CID_152045500_JID_8777_Energie_neutraal

0 1

--Link1--
%chk=JID_8777.chk
%mem=8GB
%nprocshared=4
# B3LYP/6-311++G(d,p) empiricaldispersion=gd3bj scf=xqc pop=npa geom=check

CID_152045500_JID_8777_Energie_kation

1 2

--Link1--
%chk=JID_8777.chk
%mem=8GB
%nprocshared=4
# B3LYP/6-311++G(d,p) empiricaldispersion=gd3bj scf=xqc pop=npa geom=check

CID_152045500_JID_8777_Energie_anion

-1 2
