%chk=JID_6249.chk
%mem=8GB
%nprocshared=4
# opt freq B3LYP/6-31G(d) empiricaldispersion=gd3bj scf=xqc

CID_59940046_JID_6249_neutraal

0 1
C          1.02273       -0.07841       -0.05775
C          0.41694        1.13708       -0.68382
C          0.17066        1.36765       -1.98856
C          0.44559        0.40776       -3.11480
C         -0.45538        2.61173       -2.42349
C         -0.05282        3.83757       -2.05031
C         -0.68884        5.04783       -2.52781
C         -0.36173        6.31107       -2.18830
C          0.72333        6.71863       -1.22802
C         -1.11113        7.42816       -2.80949
C         -2.50705        7.50963       -2.68850
C         -3.19422        8.57295       -3.27027
C         -2.51730        9.56261       -3.97195
C         -1.13135        9.49345       -4.09448
C         -0.43113        8.43244       -3.51434
O         -4.55035        8.68192       -3.16986
H          1.25788       -0.87237       -0.76812
H          0.33112       -0.49107        0.68373
H          1.94803        0.19676        0.45812
H          0.14443        1.90413        0.04131
H         -0.49227        0.09054       -3.58426
H          1.06750        0.88693       -3.87963
H          0.97317       -0.49429       -2.79851
H         -1.28126        2.49712       -3.12382
H          0.79430        3.93401       -1.37772
H         -1.49073        4.89120       -3.25032
H          1.62655        7.01719       -1.77007
H          0.39709        7.56293       -0.60959
H          0.99430        5.91996       -0.53232
H         -3.04392        6.74761       -2.13141
H         -3.06747       10.38490       -4.42027
H         -0.59576       10.26372       -4.64289
H          0.64953        8.39028       -3.62908
H         -4.88315        7.93269       -2.64909

--Link1--
%chk=JID_6249.chk
%mem=8GB
%nprocshared=4
# B3LYP/6-311++G(d,p) empiricaldispersion=gd3bj scf=xqc pop=npa geom=check

CID_59940046_JID_6249_Energie_neutraal

0 1

--Link1--
%chk=JID_6249.chk
%mem=8GB
%nprocshared=4
# B3LYP/6-311++G(d,p) empiricaldispersion=gd3bj scf=xqc pop=npa geom=check

CID_59940046_JID_6249_Energie_kation

1 2

--Link1--
%chk=JID_6249.chk
%mem=8GB
%nprocshared=4
# B3LYP/6-311++G(d,p) empiricaldispersion=gd3bj scf=xqc pop=npa geom=check

CID_59940046_JID_6249_Energie_anion

-1 2
