%chk=JID_4738.chk
%mem=8GB
%nprocshared=4
# opt freq B3LYP/6-31G(d) empiricaldispersion=gd3bj scf=xqc

CID_54046419_JID_4738_neutraal

0 1
C          0.93071       -0.00809       -0.07165
C          0.54611       -1.02095       -1.13699
C          0.80410       -2.48940       -0.73123
C          0.10456       -2.91504        0.57528
C         -1.41232       -2.78629        0.57431
C          0.42892       -3.42599       -1.89907
O          1.34777       -3.20713       -2.97079
C          0.74440       -2.92175       -4.17218
N          1.43969       -2.09620       -4.96556
C          0.87412       -1.80935       -6.14935
C         -0.33593       -2.32083       -6.55682
C         -0.96280       -3.17787       -5.67392
N         -0.43167       -3.49597       -4.47552
C         -2.28874       -3.78348       -6.02160
H          0.28628       -0.08402        0.80883
H          0.82897        1.00818       -0.46618
H          1.96953       -0.14517        0.24458
H         -0.50690       -0.87794       -1.40658
H          1.12758       -0.78812       -2.03723
H          1.88611       -2.58811       -0.56467
H          0.36346       -3.95937        0.79127
H          0.50636       -2.33178        1.41212
H         -1.86861       -3.40936       -0.20001
H         -1.81273       -3.11381        1.53955
H         -1.72972       -1.75118        0.42058
H          0.53668       -4.47272       -1.59226
H         -0.62090       -3.26347       -2.17009
H          1.44085       -1.13179       -6.78083
H         -0.76335       -2.06293       -7.51648
H         -2.21427       -4.34974       -6.95510
H         -2.62381       -4.46672       -5.23456
H         -3.04282       -2.99844       -6.13568

--Link1--
%chk=JID_4738.chk
%mem=8GB
%nprocshared=4
# B3LYP/6-311++G(d,p) empiricaldispersion=gd3bj scf=xqc pop=npa geom=check

CID_54046419_JID_4738_Energie_neutraal

0 1

--Link1--
%chk=JID_4738.chk
%mem=8GB
%nprocshared=4
# B3LYP/6-311++G(d,p) empiricaldispersion=gd3bj scf=xqc pop=npa geom=check

CID_54046419_JID_4738_Energie_kation

1 2

--Link1--
%chk=JID_4738.chk
%mem=8GB
%nprocshared=4
# B3LYP/6-311++G(d,p) empiricaldispersion=gd3bj scf=xqc pop=npa geom=check

CID_54046419_JID_4738_Energie_anion

-1 2
