%chk=JID_7340.chk
%mem=8GB
%nprocshared=4
# opt freq B3LYP/6-31G(d) empiricaldispersion=gd3bj scf=xqc

CID_116905456_JID_7340_neutraal

0 1
C          2.54100        1.06400        0.00800
C          1.16736        0.46783       -0.04671
C          0.04297        1.28983       -0.15654
C         -1.27365        0.77071       -0.18739
C         -1.47485       -0.62171       -0.07307
C         -0.31624       -1.43386        0.03218
C          0.97626       -0.90409        0.05240
C         -2.83097       -1.36072       -0.04433
C         -3.65075       -1.20360        1.28182
C         -4.45828        0.06037        1.64289
C         -5.68974        0.25108        0.75740
C         -4.94916        0.00899        3.11366
N         -3.86432        0.12024        4.08320
N         -3.45607       -1.62498       -1.35575
C         -4.64631       -2.45997       -1.31720
C         -3.55247       -0.56201       -2.33391
C         -2.35320        1.79965       -0.35922
H          2.63922        1.87217       -0.72438
H          2.73716        1.46209        1.00838
H          3.30748        0.31764       -0.22582
H          0.18764        2.36784       -0.22910
H         -0.41172       -2.51677        0.10274
H          1.82493       -1.57700        0.14517
H         -2.48931       -2.39253        0.14584
H         -4.33851       -2.05815        1.35696
H         -2.92268       -1.37438        2.08624
H         -3.82102        0.94170        1.56046
H         -6.37566       -0.59833        0.84302
H         -6.24102        1.15194        1.04965
H         -5.42421        0.37367       -0.29055
H         -5.63882        0.84075        3.29879
H         -5.50584       -0.91775        3.29628
H         -4.25043        0.10264        5.02631
H         -3.24391       -0.68447        4.01984
H         -5.52331       -1.92446       -0.94710
H         -4.88500       -2.83735       -2.31833
H         -4.48956       -3.34619       -0.69232
H         -4.28861        0.19925       -2.07156
H         -2.58726       -0.08327       -2.51940
H         -3.85320       -0.97066       -3.30665
H         -2.39080        2.45599        0.51643
H         -2.14949        2.41116       -1.24563
H         -3.33748        1.36586       -0.50221

--Link1--
%chk=JID_7340.chk
%mem=8GB
%nprocshared=4
# B3LYP/6-311++G(d,p) empiricaldispersion=gd3bj scf=xqc pop=npa geom=check

CID_116905456_JID_7340_Energie_neutraal

0 1

--Link1--
%chk=JID_7340.chk
%mem=8GB
%nprocshared=4
# B3LYP/6-311++G(d,p) empiricaldispersion=gd3bj scf=xqc pop=npa geom=check

CID_116905456_JID_7340_Energie_kation

1 2

--Link1--
%chk=JID_7340.chk
%mem=8GB
%nprocshared=4
# B3LYP/6-311++G(d,p) empiricaldispersion=gd3bj scf=xqc pop=npa geom=check

CID_116905456_JID_7340_Energie_anion

-1 2
