%chk=JID_6035.chk
%mem=8GB
%nprocshared=4
# opt freq B3LYP/6-31G(d) empiricaldispersion=gd3bj scf=xqc

CID_136669045_JID_6035_neutraal

0 1
C          2.50000        1.22000       -0.00600
C          1.22223        0.43631        0.07189
C          0.14889        0.91592        0.83266
C         -1.05378        0.21508        0.86857
C         -1.20616       -0.97243        0.14591
C         -0.13622       -1.46039       -0.61215
C          1.06723       -0.75001       -0.65819
C         -2.46993       -1.75063        0.20499
N         -3.66896       -1.28362        0.00170
N         -3.80324        0.08180       -0.48027
S         -4.10918        0.27904       -2.17662
O         -4.76229       -0.90532       -2.68646
O         -4.71279        1.58924       -2.31076
C         -2.45777        0.35309       -2.82826
C         -2.35291       -3.21422        0.56655
O         -2.05040        0.74399        1.64082
H          2.45129        1.93238       -0.83523
H          2.67907        1.76987        0.92392
H          3.35623        0.55490       -0.15985
H          0.24247        1.83974        1.39941
H         -0.23088       -2.38124       -1.18246
H          1.88780       -1.12972       -1.26454
H         -4.60142        0.57987       -0.05899
H         -2.00068       -0.63301       -2.74188
H         -2.52817        0.62653       -3.88356
H         -1.88898        1.11133       -2.28863
H         -2.47497       -3.81634       -0.33858
H         -1.38669       -3.44129        1.02467
H         -3.14152       -3.47941        1.27730
H         -2.88390        0.31805        1.35573

--Link1--
%chk=JID_6035.chk
%mem=8GB
%nprocshared=4
# B3LYP/6-311++G(d,p) empiricaldispersion=gd3bj scf=xqc pop=npa geom=check

CID_136669045_JID_6035_Energie_neutraal

0 1

--Link1--
%chk=JID_6035.chk
%mem=8GB
%nprocshared=4
# B3LYP/6-311++G(d,p) empiricaldispersion=gd3bj scf=xqc pop=npa geom=check

CID_136669045_JID_6035_Energie_kation

1 2

--Link1--
%chk=JID_6035.chk
%mem=8GB
%nprocshared=4
# B3LYP/6-311++G(d,p) empiricaldispersion=gd3bj scf=xqc pop=npa geom=check

CID_136669045_JID_6035_Energie_anion

-1 2
