%chk=JID_8244.chk
%mem=8GB
%nprocshared=4
# opt freq B3LYP/6-31G(d) empiricaldispersion=gd3bj scf=xqc

CID_104617298_JID_8244_neutraal

0 1
C          0.95223       -0.07825       -0.03994
C          0.21075       -0.19934       -1.36073
C          0.59524       -1.43208       -2.09651
C          0.09637       -2.71542       -2.07055
C          0.84402       -3.43510       -3.03350
N          1.77923       -2.66365       -3.58395
N          1.59935       -1.45885       -3.02247
N          0.62144       -4.75716       -3.32805
C          1.19703       -5.55896       -4.26520
O          0.91236       -6.76135       -4.21852
C          2.15030       -5.00431       -5.32291
C          2.73972       -6.12414       -6.19665
C          3.23773       -5.39521       -7.42997
C          2.11938       -4.41074       -7.72475
C          1.56023       -4.00986       -6.34978
C          0.05346       -3.92844       -6.38820
O         -0.61383       -2.90932       -6.31503
O         -0.54720       -5.11629       -6.58128
H          0.73995       -0.93092        0.61419
H          0.64902        0.83429        0.48303
H          2.03575       -0.03659       -0.19560
H         -0.86902       -0.20959       -1.17066
H          0.41414        0.68523       -1.97596
H         -0.71939       -3.07545       -1.45988
H          2.19812       -0.69530       -3.32032
H         -0.03953       -5.24339       -2.73900
H          2.99754       -4.53854       -4.80325
H          3.54457       -6.66159       -5.68497
H          1.97651       -6.85831       -6.48284
H          3.42683       -6.07184       -8.26819
H          4.16719       -4.85861       -7.20609
H          1.35715       -4.88685       -8.35290
H          2.49251       -3.54139       -8.27673
H          1.92596       -3.00197       -6.12044
H         -1.50330       -4.90504       -6.60548

--Link1--
%chk=JID_8244.chk
%mem=8GB
%nprocshared=4
# B3LYP/6-311++G(d,p) empiricaldispersion=gd3bj scf=xqc pop=npa geom=check

CID_104617298_JID_8244_Energie_neutraal

0 1

--Link1--
%chk=JID_8244.chk
%mem=8GB
%nprocshared=4
# B3LYP/6-311++G(d,p) empiricaldispersion=gd3bj scf=xqc pop=npa geom=check

CID_104617298_JID_8244_Energie_kation

1 2

--Link1--
%chk=JID_8244.chk
%mem=8GB
%nprocshared=4
# B3LYP/6-311++G(d,p) empiricaldispersion=gd3bj scf=xqc pop=npa geom=check

CID_104617298_JID_8244_Energie_anion

-1 2
