%chk=JID_3679.chk
%mem=8GB
%nprocshared=4
# opt freq B3LYP/6-31G(d) empiricaldispersion=gd3bj scf=xqc

CID_121205451_JID_3679_neutraal

0 1
C          1.01941        0.09244       -0.03282
C          0.35639        1.05655        0.93709
C          0.56216        2.53487        0.58219
C          0.02661        2.97900       -0.80063
C         -1.51828        2.91183       -0.87247
N         -2.02406        2.94220       -2.24710
C          0.50212        4.37749       -1.19324
N          0.69486        4.58717       -2.51528
C          1.09871        5.81265       -2.88307
N          1.31675        6.85020       -2.06480
C          1.10624        6.62317       -0.75473
C          0.68850        5.39470       -0.27032
C          1.35168        7.76143        0.18984
H          0.52946        0.10656       -1.01064
H          0.95398       -0.93050        0.35194
H          2.07782        0.33547       -0.16917
H         -0.70975        0.82091        1.01537
H          0.77939        0.88644        1.93500
H          0.08708        3.12954        1.37281
H          1.63817        2.74854        0.63774
H          0.44284        2.29299       -1.54989
H         -1.89071        1.98893       -0.42028
H         -1.95691        3.74648       -0.31237
H         -2.99955        3.23291       -2.25271
H         -1.50432        3.64627       -2.77987
H          1.26058        5.97894       -3.94214
H          0.52096        5.25445        0.78904
H          1.64402        8.66477       -0.35521
H          0.44382        7.98567        0.75839
H          2.15795        7.50682        0.88493

--Link1--
%chk=JID_3679.chk
%mem=8GB
%nprocshared=4
# B3LYP/6-311++G(d,p) empiricaldispersion=gd3bj scf=xqc pop=npa geom=check

CID_121205451_JID_3679_Energie_neutraal

0 1

--Link1--
%chk=JID_3679.chk
%mem=8GB
%nprocshared=4
# B3LYP/6-311++G(d,p) empiricaldispersion=gd3bj scf=xqc pop=npa geom=check

CID_121205451_JID_3679_Energie_kation

1 2

--Link1--
%chk=JID_3679.chk
%mem=8GB
%nprocshared=4
# B3LYP/6-311++G(d,p) empiricaldispersion=gd3bj scf=xqc pop=npa geom=check

CID_121205451_JID_3679_Energie_anion

-1 2
