%chk=JID_10791.chk
%mem=8GB
%nprocshared=4
# opt freq B3LYP/6-31G(d) empiricaldispersion=gd3bj scf=xqc

CID_105408422_JID_10791_neutraal

0 1
C          2.49200        0.00400       -0.01400
C          0.98715       -0.04096        0.01832
C          0.28328       -1.26312        0.08522
C         -1.12417       -1.23204        0.10710
C         -1.83761       -0.02419        0.07913
C         -1.12439        1.17583        0.01889
C          0.27130        1.16735       -0.00614
C         -3.34723       -0.03097        0.09524
N         -3.87773       -0.49937       -1.18427
C         -5.33125       -0.44511       -1.20047
C          0.96481       -2.56544        0.12441
C          0.99394       -3.39100       -1.01101
C          1.63407       -4.64223       -0.99202
C          1.66416       -5.46694       -2.12837
C          2.30364       -6.70715       -2.09363
C          2.92096       -7.13863       -0.92335
C          2.89973       -6.33107        0.21497
C          2.26023       -5.08088        0.19609
C          2.22720       -4.25839        1.33176
C          1.58522       -3.01756        1.29565
H          2.90074       -0.27369        0.96240
H          2.88469       -0.66968       -0.78237
H          2.85556        1.00873       -0.25551
H         -1.67943       -2.16950        0.14331
H         -1.64865        2.12804       -0.01017
H          0.80108        2.11662       -0.05171
H         -3.68448       -0.68046        0.91283
H         -3.71571        0.97870        0.31654
H         -3.50329        0.08801       -1.92838
H         -5.69754        0.57808       -1.06742
H         -5.69910       -0.81091       -2.16409
H         -5.76015       -1.08319       -0.42103
H          0.50953       -3.04687       -1.92369
H          1.18625       -5.14675       -3.05159
H          2.31815       -7.33498       -2.98060
H          3.41877       -8.10426       -0.89470
H          3.38658       -6.68569        1.12052
H          2.69938       -4.57847        2.25759
H          1.56759       -2.40149        2.19230

--Link1--
%chk=JID_10791.chk
%mem=8GB
%nprocshared=4
# B3LYP/6-311++G(d,p) empiricaldispersion=gd3bj scf=xqc pop=npa geom=check

CID_105408422_JID_10791_Energie_neutraal

0 1

--Link1--
%chk=JID_10791.chk
%mem=8GB
%nprocshared=4
# B3LYP/6-311++G(d,p) empiricaldispersion=gd3bj scf=xqc pop=npa geom=check

CID_105408422_JID_10791_Energie_kation

1 2

--Link1--
%chk=JID_10791.chk
%mem=8GB
%nprocshared=4
# B3LYP/6-311++G(d,p) empiricaldispersion=gd3bj scf=xqc pop=npa geom=check

CID_105408422_JID_10791_Energie_anion

-1 2
