%chk=JID_8221.chk
%mem=8GB
%nprocshared=4
# opt freq B3LYP/6-31G(d) empiricaldispersion=gd3bj scf=xqc

CID_114141331_JID_8221_neutraal

0 1
C          0.91871        0.00567       -0.05796
C          0.41755       -0.02045       -1.50176
C          1.28133       -0.92889       -2.37907
N         -1.00237       -0.38166       -1.56045
C         -1.49104       -1.63568       -1.27402
C         -2.86175       -1.60090       -1.40836
C         -3.21908       -0.28598       -1.77677
C         -2.05489        0.46500       -1.87627
C         -1.86130        1.90476       -2.23129
N         -3.12209        2.54923       -2.56296
S         -3.94723       -2.91866       -1.17182
O         -5.15338       -2.33080       -0.63449
O         -3.93205       -3.63507       -2.42622
N         -3.29710       -3.94684       -0.01158
C         -3.31953       -3.50855        1.39777
C         -4.64313       -3.82232        2.10190
S         -5.10383       -5.59016        1.96667
C         -6.48296       -5.44152        0.79970
H          0.87855       -0.98787        0.40192
H          0.31001        0.68004        0.55451
H          1.95579        0.35470       -0.01470
H          0.51051        0.99360       -1.90341
H          1.30287       -1.95811       -2.00518
H          0.90316       -0.95398       -3.40694
H          2.31407       -0.56531       -2.40832
H         -0.83622       -2.45341       -1.00191
H         -4.22409        0.08166       -1.94741
H         -1.40533        2.43308       -1.38704
H         -1.18790        1.98797       -3.09151
H         -2.94160        3.50773       -2.85221
H         -3.52375        2.07908       -3.37276
H         -3.61394       -4.90900       -0.14755
H         -2.50100       -4.02815        1.91100
H         -3.09299       -2.43951        1.47208
H         -4.53622       -3.59401        3.16774
H         -5.45672       -3.19603        1.72703
H         -7.26323       -4.79632        1.21158
H         -6.13902       -5.04331       -0.15716
H         -6.91049       -6.43265        0.62601

--Link1--
%chk=JID_8221.chk
%mem=8GB
%nprocshared=4
# B3LYP/6-311++G(d,p) empiricaldispersion=gd3bj scf=xqc pop=npa geom=check

CID_114141331_JID_8221_Energie_neutraal

0 1

--Link1--
%chk=JID_8221.chk
%mem=8GB
%nprocshared=4
# B3LYP/6-311++G(d,p) empiricaldispersion=gd3bj scf=xqc pop=npa geom=check

CID_114141331_JID_8221_Energie_kation

1 2

--Link1--
%chk=JID_8221.chk
%mem=8GB
%nprocshared=4
# B3LYP/6-311++G(d,p) empiricaldispersion=gd3bj scf=xqc pop=npa geom=check

CID_114141331_JID_8221_Energie_anion

-1 2
