%chk=JID_10249.chk
%mem=8GB
%nprocshared=4
# opt freq B3LYP/6-31G(d) empiricaldispersion=gd3bj scf=xqc

CID_71943653_JID_10249_neutraal

0 1
C          0.93582       -0.05487        0.05358
S          0.42304       -0.47471        1.70749
O          1.46857       -0.09740        2.63292
O         -0.93744       -0.01879        1.88628
N          0.38682       -2.16548        1.63658
C          1.67818       -2.87246        1.51331
C          1.29030       -4.31911        1.75865
C          0.23589       -4.23550        2.85182
C         -0.35395       -2.81972        2.75809
C         -1.87608       -2.85695        2.65661
O         -2.57409       -2.80566        3.67536
N         -2.52522       -3.07898        1.47549
C         -1.97589       -3.13282        0.13800
C         -3.04428       -3.34127       -0.93405
C         -3.99298       -2.15101       -1.10484
N         -3.33202       -0.92973       -1.51384
C         -3.10914        0.16835       -0.73396
C         -2.45738        1.05965       -1.55318
N         -2.27502        0.52606       -2.80334
C         -2.83239       -0.66325       -2.75625
H          0.90680        1.03322       -0.03811
H          0.24387       -0.50341       -0.66036
H          1.95455       -0.40931       -0.10933
H          2.38882       -2.53443        2.27495
H          2.11250       -2.74650        0.51875
H          0.85224       -4.75122        0.85167
H          2.14493       -4.93873        2.04534
H         -0.51090       -5.02950        2.74571
H          0.70748       -4.36785        3.83333
H         -0.11282       -2.28757        3.68926
H         -3.53004       -3.06828        1.60211
H         -1.42112       -2.21500       -0.05880
H         -1.26830       -3.96655        0.10924
H         -2.54153       -3.54153       -1.88838
H         -3.63683       -4.23203       -0.69277
H         -4.73901       -2.37944       -1.87530
H         -4.53971       -1.94604       -0.17777
H         -3.40457        0.22683        0.30574
H         -2.10560        2.05252       -1.30409
H         -2.89293       -1.36199       -3.58045

--Link1--
%chk=JID_10249.chk
%mem=8GB
%nprocshared=4
# B3LYP/6-311++G(d,p) empiricaldispersion=gd3bj scf=xqc pop=npa geom=check

CID_71943653_JID_10249_Energie_neutraal

0 1

--Link1--
%chk=JID_10249.chk
%mem=8GB
%nprocshared=4
# B3LYP/6-311++G(d,p) empiricaldispersion=gd3bj scf=xqc pop=npa geom=check

CID_71943653_JID_10249_Energie_kation

1 2

--Link1--
%chk=JID_10249.chk
%mem=8GB
%nprocshared=4
# B3LYP/6-311++G(d,p) empiricaldispersion=gd3bj scf=xqc pop=npa geom=check

CID_71943653_JID_10249_Energie_anion

-1 2
