%chk=JID_7312.chk
%mem=8GB
%nprocshared=4
# opt freq B3LYP/6-31G(d) empiricaldispersion=gd3bj scf=xqc

CID_43610367_JID_7312_neutraal

0 1
C          0.78100       -1.26600       -0.21900
C         -0.52224       -1.45277        0.54503
O         -1.32329       -0.27538        0.46502
C         -0.68713        0.85253        1.06253
C          0.60160        1.19183        0.32625
C          1.53633       -0.01849        0.24249
N          2.19489       -0.26162        1.52759
C          3.38049        0.23307        1.96489
O          3.62794        0.25751        3.16665
N          4.23055        0.74844        1.04177
C          5.22886       -0.06044        0.56435
O          6.39929        0.31459        0.64684
C          4.87570       -1.40088       -0.04985
C          5.46499       -2.54748        0.75753
C          4.65371       -2.77332        1.99948
O          3.49604       -3.15878        2.03611
O          5.31054       -2.41319        3.11394
H          0.54007       -1.14124       -1.28254
H          1.40218       -2.16374       -0.12693
H         -1.09482       -2.27543        0.10467
H         -0.34459       -1.70491        1.59677
H         -0.50705        0.65251        2.12509
H         -1.38178        1.69645        1.00149
H          1.09673        2.04440        0.80416
H          0.34338        1.49228       -0.69740
H          2.31231        0.21177       -0.49530
H          1.62626       -0.60885        2.29205
H          4.75027        1.49210        1.49689
H          3.80076       -1.52077       -0.18022
H          5.30875       -1.40364       -1.05758
H          5.44126       -3.47749        0.17864
H          6.51207       -2.36414        1.02299
H          4.64388       -2.43585        3.83292

--Link1--
%chk=JID_7312.chk
%mem=8GB
%nprocshared=4
# B3LYP/6-311++G(d,p) empiricaldispersion=gd3bj scf=xqc pop=npa geom=check

CID_43610367_JID_7312_Energie_neutraal

0 1

--Link1--
%chk=JID_7312.chk
%mem=8GB
%nprocshared=4
# B3LYP/6-311++G(d,p) empiricaldispersion=gd3bj scf=xqc pop=npa geom=check

CID_43610367_JID_7312_Energie_kation

1 2

--Link1--
%chk=JID_7312.chk
%mem=8GB
%nprocshared=4
# B3LYP/6-311++G(d,p) empiricaldispersion=gd3bj scf=xqc pop=npa geom=check

CID_43610367_JID_7312_Energie_anion

-1 2
