%chk=JID_1836.chk
%mem=8GB
%nprocshared=4
# opt freq B3LYP/6-31G(d) empiricaldispersion=gd3bj scf=xqc

CID_142524124_JID_1836_neutraal

0 1
C          1.07927        0.00502       -0.06075
C          0.68312       -1.29823        0.62012
C          1.17208       -1.39306        2.07881
C          0.61407       -0.29973        3.02214
C         -0.89440        0.03275        2.97412
C         -1.79573       -1.12159        3.40640
C         -1.17014        1.24815        3.86922
C          0.93485       -2.79100        2.61309
C          1.79792       -3.59123        3.25923
C          3.15628       -3.27412        3.62694
C          3.96540       -4.15038        4.23415
H          0.60958        0.87109        0.41352
H          0.76549       -0.01005       -1.10950
H          2.16460        0.14543       -0.03607
H         -0.40456       -1.42230        0.56284
H          1.11518       -2.12505        0.04079
H          2.25617       -1.22789        2.03927
H          0.89230       -0.54650        4.05642
H          1.16113        0.62601        2.79371
H         -1.17276        0.31959        1.95386
H         -1.47134       -1.54692        4.36172
H         -2.83199       -0.78513        3.52342
H         -1.81020       -1.91517        2.65567
H         -0.57233        2.10952        3.55265
H         -2.22429        1.54091        3.81565
H         -0.93047        1.03336        4.91623
H         -0.05238       -3.20795        2.42200
H          1.44365       -4.58159        3.54582
H          3.54087       -2.28217        3.40871
H          4.98145       -3.87113        4.49521
H          3.64675       -5.15754        4.48299

--Link1--
%chk=JID_1836.chk
%mem=8GB
%nprocshared=4
# B3LYP/6-311++G(d,p) empiricaldispersion=gd3bj scf=xqc pop=npa geom=check

CID_142524124_JID_1836_Energie_neutraal

0 1

--Link1--
%chk=JID_1836.chk
%mem=8GB
%nprocshared=4
# B3LYP/6-311++G(d,p) empiricaldispersion=gd3bj scf=xqc pop=npa geom=check

CID_142524124_JID_1836_Energie_kation

1 2

--Link1--
%chk=JID_1836.chk
%mem=8GB
%nprocshared=4
# B3LYP/6-311++G(d,p) empiricaldispersion=gd3bj scf=xqc pop=npa geom=check

CID_142524124_JID_1836_Energie_anion

-1 2
