%chk=JID_7672.chk
%mem=8GB
%nprocshared=4
# opt freq B3LYP/6-31G(d) empiricaldispersion=gd3bj scf=xqc

CID_137391315_JID_7672_neutraal

0 1
C         -1.65100       -1.20200        0.12900
C         -0.25866       -0.70230        0.05320
C          0.92518       -1.40554       -0.02075
C          2.09918       -0.65978       -0.08156
N          2.11440        0.70512       -0.04526
C          0.93383        1.37353        0.05016
C         -0.26056        0.68146        0.08851
C         -1.65808        1.16385        0.16157
O         -2.46780       -0.02075       -0.04071
C          1.03587        2.83876        0.08408
C          1.77613        3.52194       -0.89622
C          1.87728        4.91557       -0.88711
C          1.24538        5.65230        0.11096
C          0.52044        4.99648        1.10270
C          0.42018        3.60199        1.09092
C          3.43943       -1.35985       -0.14730
N          3.80891       -1.97223        1.13215
H         -1.87107       -1.64300        1.10556
H         -1.88826       -1.90543       -0.67334
H          0.94891       -2.48920       -0.02668
H         -1.90063        1.57533        1.14519
H         -1.89943        1.88107       -0.62734
H          2.28197        2.95773       -1.67823
H          2.45367        5.42147       -1.65711
H          1.32679        6.73602        0.12159
H          0.03994        5.56857        1.89224
H         -0.12725        3.11288        1.89342
H          3.41178       -2.12724       -0.92882
H          4.21116       -0.63619       -0.43437
H          4.77403       -2.29120        1.07042
H          3.80761       -1.23141        1.83567

--Link1--
%chk=JID_7672.chk
%mem=8GB
%nprocshared=4
# B3LYP/6-311++G(d,p) empiricaldispersion=gd3bj scf=xqc pop=npa geom=check

CID_137391315_JID_7672_Energie_neutraal

0 1

--Link1--
%chk=JID_7672.chk
%mem=8GB
%nprocshared=4
# B3LYP/6-311++G(d,p) empiricaldispersion=gd3bj scf=xqc pop=npa geom=check

CID_137391315_JID_7672_Energie_kation

1 2

--Link1--
%chk=JID_7672.chk
%mem=8GB
%nprocshared=4
# B3LYP/6-311++G(d,p) empiricaldispersion=gd3bj scf=xqc pop=npa geom=check

CID_137391315_JID_7672_Energie_anion

-1 2
