%chk=JID_10376.chk
%mem=8GB
%nprocshared=4
# opt freq B3LYP/6-31G(d) empiricaldispersion=gd3bj scf=xqc

CID_103381680_JID_10376_neutraal

0 1
C          0.94798       -0.02214        0.08249
C          0.28447       -1.38734        0.25022
C         -0.83019       -1.55281       -0.80998
N         -1.36046       -2.92490       -0.86685
C         -0.42568       -3.91983       -1.40918
C          0.39349       -4.58304       -0.31353
C          0.96186       -3.62102        0.71893
O          1.33247       -2.36709        0.14753
C         -2.71200       -3.19057       -0.86052
C         -3.81977       -2.42443       -1.23411
C         -5.04669       -3.10827       -0.91201
N         -4.93257       -4.33207       -0.42190
S         -3.33875       -4.70296       -0.27619
N         -6.26192       -2.55068       -1.11220
C         -3.79533       -1.10341       -1.83094
O         -4.37009       -0.14587       -1.31262
N         -3.14821       -0.90695       -3.03068
C         -2.80210       -1.92160       -4.02254
C         -4.03174       -2.30494       -4.84371
C         -1.69123       -1.39684       -4.92805
H          0.21966        0.78967        0.17186
H          1.44513        0.05580       -0.89085
H          1.72332        0.12040        0.84319
H         -0.15404       -1.42607        1.25568
H         -1.61009       -0.82878       -0.55411
H         -0.44824       -1.28239       -1.80192
H          0.25308       -3.43622       -2.12453
H         -0.94450       -4.68842       -1.99630
H          1.22221       -5.11638       -0.79631
H         -0.19562       -5.34890        0.20421
H          1.86697       -4.06236        1.15099
H          0.26166       -3.48751        1.55272
H         -6.33710       -1.53524       -1.08400
H         -7.03549       -3.00969       -0.64174
H         -3.29868        0.03449       -3.37218
H         -2.43747       -2.81751       -3.51546
H         -4.44692       -1.43470       -5.36422
H         -3.78062       -3.06316       -5.59268
H         -4.82196       -2.71290       -4.20488
H         -0.80323       -1.13560       -4.34219
H         -1.39867       -2.14988       -5.66702
H         -2.00727       -0.49557       -5.46520

--Link1--
%chk=JID_10376.chk
%mem=8GB
%nprocshared=4
# B3LYP/6-311++G(d,p) empiricaldispersion=gd3bj scf=xqc pop=npa geom=check

CID_103381680_JID_10376_Energie_neutraal

0 1

--Link1--
%chk=JID_10376.chk
%mem=8GB
%nprocshared=4
# B3LYP/6-311++G(d,p) empiricaldispersion=gd3bj scf=xqc pop=npa geom=check

CID_103381680_JID_10376_Energie_kation

1 2

--Link1--
%chk=JID_10376.chk
%mem=8GB
%nprocshared=4
# B3LYP/6-311++G(d,p) empiricaldispersion=gd3bj scf=xqc pop=npa geom=check

CID_103381680_JID_10376_Energie_anion

-1 2
