%chk=JID_8228.chk
%mem=8GB
%nprocshared=4
# opt freq B3LYP/6-31G(d) empiricaldispersion=gd3bj scf=xqc

CID_61625121_JID_8228_neutraal

0 1
C          0.97965       -0.02906       -0.09350
C          2.02541       -1.03686       -0.56331
N          2.38214       -1.96706        0.50328
C          1.39224       -3.03739        0.74976
C          1.35694       -4.12491       -0.34057
O          2.25002       -4.97766       -0.37897
N          0.31902       -4.12702       -1.27206
C         -0.91315       -3.37619       -1.10792
C          0.26390       -5.23740       -2.21065
C          3.78703       -2.44703        0.51144
C          4.49149       -2.64139       -0.87608
N          5.83389       -3.24322       -0.79192
C          4.59908       -1.55721        1.46022
C          4.96140       -1.85228        2.76330
C          5.72158       -0.81456        3.37355
C          5.91923        0.25231        2.52451
S          5.18504       -0.00921        1.00397
C          6.65467        1.52107        2.78530
H          0.04218       -0.50187        0.20820
H          0.75141        0.67414       -0.90132
H          1.35379        0.55135        0.75711
H          1.68174       -1.55958       -1.46243
H          2.88697       -0.43649       -0.87137
H          1.63907       -3.54566        1.69190
H          0.40254       -2.61817        0.93909
H         -1.47103       -3.36057       -2.04887
H         -1.51501       -3.85330       -0.32932
H         -0.70508       -2.34523       -0.82738
H          1.25608       -5.65428       -2.40451
H         -0.37554       -6.01965       -1.79071
H         -0.15342       -4.88866       -3.15990
H          3.80826       -3.43659        0.99221
H          3.87798       -3.28706       -1.51215
H          4.59496       -1.68833       -1.40506
H          6.25002       -3.25920       -1.72085
H          6.42748       -2.64345       -0.21757
H          4.68998       -2.77931        3.25411
H          6.10103       -0.85272        4.38738
H          7.05002        1.54137        3.80631
H          7.49962        1.62828        2.09710
H          5.99379        2.38589        2.66545

--Link1--
%chk=JID_8228.chk
%mem=8GB
%nprocshared=4
# B3LYP/6-311++G(d,p) empiricaldispersion=gd3bj scf=xqc pop=npa geom=check

CID_61625121_JID_8228_Energie_neutraal

0 1

--Link1--
%chk=JID_8228.chk
%mem=8GB
%nprocshared=4
# B3LYP/6-311++G(d,p) empiricaldispersion=gd3bj scf=xqc pop=npa geom=check

CID_61625121_JID_8228_Energie_kation

1 2

--Link1--
%chk=JID_8228.chk
%mem=8GB
%nprocshared=4
# B3LYP/6-311++G(d,p) empiricaldispersion=gd3bj scf=xqc pop=npa geom=check

CID_61625121_JID_8228_Energie_anion

-1 2
