%chk=JID_8493.chk
%mem=8GB
%nprocshared=4
# opt freq B3LYP/6-31G(d) empiricaldispersion=gd3bj scf=xqc

CID_54952708_JID_8493_neutraal

0 1
C          0.90543        0.03249        0.00064
C          0.40280        1.43711        0.29978
C          0.54954        2.42117       -0.87938
C         -0.21708        1.98307       -2.16096
C         -1.72994        1.84748       -1.95685
C          0.05573        2.91813       -3.34383
N          0.11814        3.74546       -0.42388
C          0.79962        4.93980       -0.48854
O          0.26166        5.99217       -0.16333
C          2.26917        4.93383       -0.94603
O          2.52360        4.61045       -2.10168
N          3.23666        5.29149       -0.00536
C          2.96054        5.50756        1.40808
C          2.90685        4.22364        2.23223
C          3.82173        3.08338        1.77970
N          5.18017        3.47304        1.41205
C          5.28329        3.84630       -0.00857
C          4.64482        5.19504       -0.38299
H          0.27317       -0.47364       -0.73427
H          0.89438       -0.57116        0.91399
H          1.93237        0.05465       -0.37723
H         -0.63866        1.38790        0.63865
H          0.96941        1.82501        1.15507
H          1.61503        2.46934       -1.12699
H          0.15960        0.99725       -2.46066
H         -2.18852        2.80042       -1.67460
H         -2.21245        1.51056       -2.88119
H         -1.96678        1.10951       -1.18520
H          1.12625        2.95878       -3.56610
H         -0.44909        2.55590       -4.24624
H         -0.29958        3.93528       -3.15116
H         -0.84672        3.86047       -0.13978
H          2.02190        6.05472        1.53096
H          3.73978        6.16905        1.80644
H          3.12844        4.47941        3.27625
H          1.87714        3.84564        2.23215
H          3.89585        2.37181        2.61104
H          3.34766        2.52012        0.96674
H          5.50904        4.23504        2.00257
H          4.86434        3.04741       -0.63316
H          6.34905        3.89562       -0.26057
H          4.74649        5.34412       -1.46409
H          5.18580        6.01865        0.09819

--Link1--
%chk=JID_8493.chk
%mem=8GB
%nprocshared=4
# B3LYP/6-311++G(d,p) empiricaldispersion=gd3bj scf=xqc pop=npa geom=check

CID_54952708_JID_8493_Energie_neutraal

0 1

--Link1--
%chk=JID_8493.chk
%mem=8GB
%nprocshared=4
# B3LYP/6-311++G(d,p) empiricaldispersion=gd3bj scf=xqc pop=npa geom=check

CID_54952708_JID_8493_Energie_kation

1 2

--Link1--
%chk=JID_8493.chk
%mem=8GB
%nprocshared=4
# B3LYP/6-311++G(d,p) empiricaldispersion=gd3bj scf=xqc pop=npa geom=check

CID_54952708_JID_8493_Energie_anion

-1 2
