%chk=JID_9443.chk
%mem=8GB
%nprocshared=4
# opt freq B3LYP/6-31G(d) empiricaldispersion=gd3bj scf=xqc

CID_60684333_JID_9443_neutraal

0 1
C          0.92937       -0.03868       -0.05929
C          1.38537       -1.24625       -0.87212
C          1.21603       -2.59483       -0.13736
C          1.64371       -3.73318       -1.06869
N          1.99730       -2.55779        1.10501
C          1.90433       -3.75389        1.95779
C          0.47973       -4.22047        2.26500
O          0.08804       -5.34068        1.92553
N         -0.37926       -3.42588        2.96434
C         -0.15473       -2.08657        3.47961
C         -1.43858       -1.18700        3.65619
C         -2.44055       -1.87486        4.61062
C         -0.91506        0.07963        4.39250
N         -2.03567       -0.81358        2.33154
C         -2.74641       -1.90542        1.62415
C         -3.25132       -1.47386        0.23628
O         -4.12861       -0.34834        0.33424
C         -3.43613        0.74224        0.94675
C         -2.92732        0.37022        2.35189
H         -0.11845       -0.14083        0.23462
H          1.02308        0.87252       -0.65882
H          1.53268        0.09443        0.84360
H          0.80384       -1.27044       -1.80244
H          2.43408       -1.10220       -1.16231
H          0.15086       -2.70979        0.09468
H          1.44229       -4.71421       -0.62751
H          1.09024       -3.68619       -2.01317
H          2.71221       -3.67787       -1.30435
H          2.97881       -2.39538        0.88262
H          2.44995       -4.58733        1.50097
H          2.39788       -3.54522        2.91362
H         -1.24879       -3.89189        3.18397
H          0.33579       -2.23098        4.45054
H          0.56137       -1.55875        2.84675
H         -1.96839       -2.09383        5.57585
H         -3.30593       -1.23449        4.81316
H         -2.81608       -2.82453        4.21889
H         -0.24816        0.66619        3.74943
H         -1.73000        0.72805        4.73268
H         -0.34480       -0.19129        5.28951
H         -3.61348       -2.23127        2.21076
H         -2.10113       -2.76676        1.45792
H         -2.41744       -1.23224       -0.43387
H         -3.81569       -2.29311       -0.22115
H         -4.13706        1.58010        1.01859
H         -2.60975        1.05779        0.29791
H         -3.78979        0.17689        3.00073
H         -2.40248        1.25301        2.72815

--Link1--
%chk=JID_9443.chk
%mem=8GB
%nprocshared=4
# B3LYP/6-311++G(d,p) empiricaldispersion=gd3bj scf=xqc pop=npa geom=check

CID_60684333_JID_9443_Energie_neutraal

0 1

--Link1--
%chk=JID_9443.chk
%mem=8GB
%nprocshared=4
# B3LYP/6-311++G(d,p) empiricaldispersion=gd3bj scf=xqc pop=npa geom=check

CID_60684333_JID_9443_Energie_kation

1 2

--Link1--
%chk=JID_9443.chk
%mem=8GB
%nprocshared=4
# B3LYP/6-311++G(d,p) empiricaldispersion=gd3bj scf=xqc pop=npa geom=check

CID_60684333_JID_9443_Energie_anion

-1 2
