%chk=JID_5283.chk
%mem=8GB
%nprocshared=4
# opt freq B3LYP/6-31G(d) empiricaldispersion=gd3bj scf=xqc

CID_149269797_JID_5283_neutraal

0 1
C          0.93488        0.03951       -0.06479
C         -0.19539       -0.99267       -0.12033
C         -1.37132       -0.54268        0.89972
C         -2.68517       -0.81152        0.15111
C         -3.81091       -1.82215        0.35222
C         -3.77137       -2.93278       -0.81681
C         -2.29540       -3.47562       -1.13078
C         -1.25776       -2.64844       -2.00293
C         -0.70663       -1.19399       -1.63499
C         -1.76096       -0.14825       -1.97153
C         -2.74612        0.05007       -1.07985
C         -4.54564       -2.54900       -2.11643
C         -4.66476       -3.74455       -3.07419
C         -5.95628       -2.01899       -1.83350
C         -1.25968       -1.27333        2.23343
H          0.59798        1.02055       -0.41521
H          1.77596       -0.27394       -0.69186
H          1.30658        0.15258        0.95883
H          0.21894       -1.95386        0.21223
H         -1.29024        0.53425        1.10082
H         -2.17688       -1.66456       -0.19533
H         -4.78261       -1.32783        0.41979
H         -3.67367       -2.34169        1.30943
H         -4.30884       -3.78931       -0.38228
H         -1.81447       -3.72556       -0.17409
H         -2.40976       -4.44610       -1.63171
H         -0.36626       -3.28838       -2.06759
H         -1.65533       -2.60309       -3.02562
H          0.14990       -1.01927       -2.30009
H         -1.71522        0.39090       -2.91120
H         -3.54743        0.76273       -1.23193
H         -4.00452       -1.76576       -2.65456
H         -5.14989       -4.59637       -2.58575
H         -5.25834       -3.47985       -3.95633
H         -3.68656       -4.06916       -3.43963
H         -5.92621       -1.03462       -1.35789
H         -6.52313       -1.89619       -2.76316
H         -6.51542       -2.70285       -1.18637
H         -0.30957       -1.03700        2.72326
H         -2.07015       -0.97414        2.90578
H         -1.30836       -2.35929        2.10267

--Link1--
%chk=JID_5283.chk
%mem=8GB
%nprocshared=4
# B3LYP/6-311++G(d,p) empiricaldispersion=gd3bj scf=xqc pop=npa geom=check

CID_149269797_JID_5283_Energie_neutraal

0 1

--Link1--
%chk=JID_5283.chk
%mem=8GB
%nprocshared=4
# B3LYP/6-311++G(d,p) empiricaldispersion=gd3bj scf=xqc pop=npa geom=check

CID_149269797_JID_5283_Energie_kation

1 2

--Link1--
%chk=JID_5283.chk
%mem=8GB
%nprocshared=4
# B3LYP/6-311++G(d,p) empiricaldispersion=gd3bj scf=xqc pop=npa geom=check

CID_149269797_JID_5283_Energie_anion

-1 2
