%chk=JID_7806.chk
%mem=8GB
%nprocshared=4
# opt freq B3LYP/6-31G(d) empiricaldispersion=gd3bj scf=xqc

CID_143900912_JID_7806_neutraal

0 1
C          1.01912        0.05322       -0.08248
C          0.34361       -0.03642        1.27803
C          1.33844        0.20384        2.41236
C         -0.92805        0.78434        1.52307
O         -1.68529        0.41544        2.43659
C         -1.24459        2.11241        0.80251
C         -0.55753        3.33254        1.45170
C          0.85786        3.69383        1.01713
C          0.88314        4.50554       -0.25304
O          0.59167        5.69039       -0.32271
O          1.24105        3.71812       -1.30487
C          1.32405        4.41146       -2.55188
N         -1.13724        1.97032       -0.65168
C         -2.34202        2.24060       -1.45561
C         -2.81229        3.69633       -1.30855
C         -1.94266        2.00370       -2.92594
C         -3.48690        1.26960       -1.11660
H          1.43230        1.04209       -0.28529
H          0.32121       -0.20363       -0.88566
H          1.84914       -0.66012       -0.14245
H          0.00956       -1.08104        1.36490
H          1.71877        1.22787        2.41361
H          0.86951        0.03138        3.38749
H          2.19377       -0.47535        2.33120
H         -2.30369        2.25574        1.05422
H         -1.20028        4.20872        1.29285
H         -0.53525        3.16757        2.53722
H          1.32517        4.32203        1.78626
H          1.50741        2.82437        0.92024
H          0.35741        4.85329       -2.81224
H          2.10430        5.17742       -2.51002
H          1.59122        3.68455       -3.32395
H         -0.34059        2.48077       -1.02983
H         -2.00573        4.40141       -1.53889
H         -3.63990        3.91074       -1.99474
H         -3.16900        3.91364       -0.29646
H         -1.59622        0.97547       -3.08528
H         -2.79213        2.17263       -3.59813
H         -1.13889        2.67904       -3.24040
H         -3.15310        0.22700       -1.17419
H         -3.89609        1.43540       -0.11509
H         -4.31841        1.38664       -1.82181

--Link1--
%chk=JID_7806.chk
%mem=8GB
%nprocshared=4
# B3LYP/6-311++G(d,p) empiricaldispersion=gd3bj scf=xqc pop=npa geom=check

CID_143900912_JID_7806_Energie_neutraal

0 1

--Link1--
%chk=JID_7806.chk
%mem=8GB
%nprocshared=4
# B3LYP/6-311++G(d,p) empiricaldispersion=gd3bj scf=xqc pop=npa geom=check

CID_143900912_JID_7806_Energie_kation

1 2

--Link1--
%chk=JID_7806.chk
%mem=8GB
%nprocshared=4
# B3LYP/6-311++G(d,p) empiricaldispersion=gd3bj scf=xqc pop=npa geom=check

CID_143900912_JID_7806_Energie_anion

-1 2
