%chk=JID_2314.chk
%mem=8GB
%nprocshared=4
# opt freq B3LYP/6-31G(d) empiricaldispersion=gd3bj scf=xqc

CID_149793464_JID_2314_neutraal

0 1
C          1.30600        0.17900       -0.14100
C          0.76772       -1.14092        0.37682
C         -0.72836       -0.91096        0.43677
N         -0.86433        0.50011        0.77944
C          0.33182        1.22933        0.37259
C         -1.44572        0.82655        2.07932
C         -0.74005        0.32037        3.35012
N          0.50074        1.02017        3.63690
N          0.50533        2.30224        4.10507
C          1.80933        2.49168        4.23069
N          2.61719        1.49205        3.91760
N          1.70416        0.55068        3.54174
H          2.33134        0.36102        0.19505
H          1.30366        0.17335       -1.23771
H          1.16409       -1.34564        1.37668
H          1.03663       -1.97906       -0.27286
H         -1.17027       -1.07653       -0.55310
H         -1.22532       -1.59314        1.13391
H          0.78552        1.79548        1.18968
H          0.08989        1.94846       -0.41748
H         -1.57301        1.91440        2.14458
H         -2.46442        0.41772        2.08845
H         -1.40118        0.46252        4.21331
H         -0.52754       -0.75196        3.28668
H          2.20353        3.43875        4.57936
H          1.96815       -0.38527        3.23402

--Link1--
%chk=JID_2314.chk
%mem=8GB
%nprocshared=4
# B3LYP/6-311++G(d,p) empiricaldispersion=gd3bj scf=xqc pop=npa geom=check

CID_149793464_JID_2314_Energie_neutraal

0 1

--Link1--
%chk=JID_2314.chk
%mem=8GB
%nprocshared=4
# B3LYP/6-311++G(d,p) empiricaldispersion=gd3bj scf=xqc pop=npa geom=check

CID_149793464_JID_2314_Energie_kation

1 2

--Link1--
%chk=JID_2314.chk
%mem=8GB
%nprocshared=4
# B3LYP/6-311++G(d,p) empiricaldispersion=gd3bj scf=xqc pop=npa geom=check

CID_149793464_JID_2314_Energie_anion

-1 2
