%chk=JID_8124.chk
%mem=8GB
%nprocshared=4
# opt freq B3LYP/6-31G(d) empiricaldispersion=gd3bj scf=xqc

CID_143693753_JID_8124_neutraal

0 1
C          0.92767        0.01276       -0.06787
C          0.80819        0.47021       -1.51463
C          1.76643       -0.24177       -2.47744
C          1.50168       -1.73704       -2.61403
C          0.69970       -2.14458       -3.60892
N          2.17099       -2.54627       -1.71181
C          1.88997       -3.85530       -1.24733
C          2.69820       -4.28809       -0.01012
C          2.08036       -5.68790        0.20753
C          3.06284       -6.86223        0.06650
C          2.32433       -8.18395       -0.21381
N          1.45807       -8.08870       -1.40233
C          0.44881       -7.02263       -1.27078
C          1.13728       -5.70317       -1.02070
C          1.96902       -5.05460       -2.21245
C          0.41567       -4.29870       -1.02437
C          0.81168       -9.37315       -1.66962
C          1.32873       -5.76643        1.54373
H          0.58999       -1.02016        0.05710
H          0.30407        0.64168        0.57580
H          1.96096        0.08809        0.28510
H         -0.22768        0.33850       -1.84981
H          1.01698        1.54619       -1.55568
H          1.68341        0.23951       -3.46132
H          2.80465       -0.07395       -2.16237
H          0.48880       -3.18634       -3.80135
H          0.22989       -1.43393       -4.28150
H          2.71946       -2.00672       -1.04448
H          2.52929       -3.61414        0.83704
H          3.77301       -4.32720       -0.21858
H          3.66803       -6.96351        0.97560
H          3.77395       -6.68319       -0.74911
H          3.08259       -8.95961       -0.37840
H          1.74616       -8.48780        0.66750
H         -0.25839       -7.24861       -0.46330
H         -0.13544       -6.95681       -2.19676
H          2.96653       -5.45549       -2.41328
H          1.43908       -4.99628       -3.16809
H         -0.29980       -4.14914       -1.84008
H         -0.06045       -3.96500       -0.09965
H          0.15577       -9.68427       -0.84855
H          0.21505       -9.32051       -2.58708
H          1.56142      -10.15617       -1.82826
H          2.03592       -5.76576        2.38088
H          0.65430       -4.91870        1.69657
H          0.71816       -6.67069        1.62257

--Link1--
%chk=JID_8124.chk
%mem=8GB
%nprocshared=4
# B3LYP/6-311++G(d,p) empiricaldispersion=gd3bj scf=xqc pop=npa geom=check

CID_143693753_JID_8124_Energie_neutraal

0 1

--Link1--
%chk=JID_8124.chk
%mem=8GB
%nprocshared=4
# B3LYP/6-311++G(d,p) empiricaldispersion=gd3bj scf=xqc pop=npa geom=check

CID_143693753_JID_8124_Energie_kation

1 2

--Link1--
%chk=JID_8124.chk
%mem=8GB
%nprocshared=4
# B3LYP/6-311++G(d,p) empiricaldispersion=gd3bj scf=xqc pop=npa geom=check

CID_143693753_JID_8124_Energie_anion

-1 2
