%chk=JID_6859.chk
%mem=8GB
%nprocshared=4
# opt freq B3LYP/6-31G(d) empiricaldispersion=gd3bj scf=xqc

CID_62612038_JID_6859_neutraal

0 1
C          1.06594       -0.07467        0.00873
N          0.73015        1.18077       -0.66981
C         -0.25420        0.94443       -1.74548
C         -1.68836        0.86414       -1.21088
C         -2.22231        2.18383       -0.63728
C         -2.82446        2.92021       -1.82804
C         -3.51614        1.83170       -2.63565
C         -2.63379        0.64001       -2.37057
O         -2.68103       -0.39692       -3.02208
C          1.95536        1.80868       -1.19502
C          1.77855        3.29697       -1.39822
C          1.81811        3.86856       -2.67215
C          1.64105        5.23909       -2.78968
N          1.43402        6.06584       -1.74243
C          1.40034        5.49463       -0.51992
C          1.56406        4.13702       -0.29991
H          1.54213       -0.79442       -0.66700
H          0.17607       -0.54308        0.44098
H          1.74773        0.11355        0.84593
H         -0.21732        1.75484       -2.48437
H         -0.00166        0.03508       -2.30815
H         -1.81545        0.05634       -0.48361
H         -1.45949        2.78143       -0.13032
H         -3.01320        1.97180        0.09346
H         -2.03135        3.38757       -2.42421
H         -3.51975        3.70705       -1.52128
H         -3.54916        2.07245       -3.70028
H         -4.51892        1.62352       -2.25191
H          2.78304        1.69551       -0.48109
H          2.28827        1.31882       -2.11982
H          1.97608        3.26489       -3.55908
H          1.66080        5.72358       -3.76169
H          1.23161        6.17768        0.30744
H          1.51626        3.73599        0.70746

--Link1--
%chk=JID_6859.chk
%mem=8GB
%nprocshared=4
# B3LYP/6-311++G(d,p) empiricaldispersion=gd3bj scf=xqc pop=npa geom=check

CID_62612038_JID_6859_Energie_neutraal

0 1

--Link1--
%chk=JID_6859.chk
%mem=8GB
%nprocshared=4
# B3LYP/6-311++G(d,p) empiricaldispersion=gd3bj scf=xqc pop=npa geom=check

CID_62612038_JID_6859_Energie_kation

1 2

--Link1--
%chk=JID_6859.chk
%mem=8GB
%nprocshared=4
# B3LYP/6-311++G(d,p) empiricaldispersion=gd3bj scf=xqc pop=npa geom=check

CID_62612038_JID_6859_Energie_anion

-1 2
