%chk=JID_3886.chk
%mem=8GB
%nprocshared=4
# opt freq B3LYP/6-31G(d) empiricaldispersion=gd3bj scf=xqc

CID_43607743_JID_3886_neutraal

0 1
C          1.02924        0.09206        0.02589
N          0.22439       -1.09437        0.33964
C         -1.11436       -1.00005       -0.28157
C         -1.20024       -0.87138       -1.80415
C         -1.20526       -2.20044       -2.49575
O         -2.01117       -3.10056       -2.33059
O         -0.20728       -2.32955       -3.39050
C          0.95647       -2.36606        0.09165
C          0.16425       -3.63291        0.48696
C         -0.01553       -3.74771        1.99981
N          1.27722       -3.77983        2.68816
C          2.06850       -2.58793        2.37381
C          2.29299       -2.45451        0.86751
H          0.42884        1.00704        0.09300
H          1.47112        0.04439       -0.97498
H          1.83349        0.22400        0.75611
H         -1.75772       -1.81135        0.07522
H         -1.58608       -0.10171        0.14150
H         -2.14466       -0.38245       -2.07477
H         -0.41142       -0.23278       -2.21287
H         -0.33703       -3.22538       -3.76685
H          1.19186       -2.42956       -0.97771
H         -0.80986       -3.68501       -0.00498
H          0.71153       -4.51540        0.12608
H         -0.63176       -2.92589        2.38320
H         -0.55037       -4.67719        2.22450
H          1.11523       -3.81586        3.69429
H          3.04006       -2.67659        2.87226
H          1.58430       -1.69143        2.77879
H          2.84920       -3.33347        0.51184
H          2.94737       -1.60242        0.65842

--Link1--
%chk=JID_3886.chk
%mem=8GB
%nprocshared=4
# B3LYP/6-311++G(d,p) empiricaldispersion=gd3bj scf=xqc pop=npa geom=check

CID_43607743_JID_3886_Energie_neutraal

0 1

--Link1--
%chk=JID_3886.chk
%mem=8GB
%nprocshared=4
# B3LYP/6-311++G(d,p) empiricaldispersion=gd3bj scf=xqc pop=npa geom=check

CID_43607743_JID_3886_Energie_kation

1 2

--Link1--
%chk=JID_3886.chk
%mem=8GB
%nprocshared=4
# B3LYP/6-311++G(d,p) empiricaldispersion=gd3bj scf=xqc pop=npa geom=check

CID_43607743_JID_3886_Energie_anion

-1 2
