%chk=JID_5725.chk
%mem=8GB
%nprocshared=4
# opt freq B3LYP/6-31G(d) empiricaldispersion=gd3bj scf=xqc

CID_21192972_JID_5725_neutraal

0 1
C         -0.72000        1.26100        0.22400
C          0.61994        1.17513       -0.50330
N          1.23838       -0.13744       -0.33967
C          0.37226       -1.21431       -0.81690
C         -0.97468       -1.21106       -0.09900
C         -1.66849        0.15090       -0.24466
C         -2.96885        0.19678        0.51036
N         -3.27680       -0.54641        1.56019
C         -4.54216       -0.17712        1.93176
C         -5.02457        0.80649        1.10497
N         -4.01288        1.05149        0.18504
C         -4.13671        2.00581       -0.82837
C         -5.27107        2.72075       -0.92904
C         -6.34373        2.47906        0.02401
C         -6.22581        1.55923        1.00115
H         -1.16398        2.24788        0.04613
H         -0.55560        1.18576        1.30767
H          0.48689        1.39792       -1.56906
H          1.29547        1.93745       -0.10003
H          2.12566       -0.16532       -0.84135
H          0.87072       -2.17358       -0.63955
H          0.22522       -1.12587       -1.90025
H         -0.81838       -1.45135        0.96147
H         -1.61052       -2.00524       -0.50964
H         -1.87946        0.29468       -1.31298
H         -5.03527       -0.63990        2.77629
H         -3.30413        2.14084       -1.50487
H         -5.41107        3.47284       -1.69764
H         -7.25082        3.06774       -0.07533
H         -7.03125        1.38670        1.70785

--Link1--
%chk=JID_5725.chk
%mem=8GB
%nprocshared=4
# B3LYP/6-311++G(d,p) empiricaldispersion=gd3bj scf=xqc pop=npa geom=check

CID_21192972_JID_5725_Energie_neutraal

0 1

--Link1--
%chk=JID_5725.chk
%mem=8GB
%nprocshared=4
# B3LYP/6-311++G(d,p) empiricaldispersion=gd3bj scf=xqc pop=npa geom=check

CID_21192972_JID_5725_Energie_kation

1 2

--Link1--
%chk=JID_5725.chk
%mem=8GB
%nprocshared=4
# B3LYP/6-311++G(d,p) empiricaldispersion=gd3bj scf=xqc pop=npa geom=check

CID_21192972_JID_5725_Energie_anion

-1 2
