%chk=JID_7180.chk
%mem=8GB
%nprocshared=4
# opt freq B3LYP/6-31G(d) empiricaldispersion=gd3bj scf=xqc

CID_64386889_JID_7180_neutraal

0 1
C          1.00900       -1.27500        0.16200
C         -0.21899       -0.91302       -0.67333
C         -1.55397       -1.23776       -0.01723
N         -1.93181       -0.03081        0.71772
C         -1.00727        1.07699        0.42898
C         -0.18281        0.60334       -0.77273
C          1.29728        0.91477       -0.67316
N          1.79544       -0.04472        0.31122
C         -2.61058       -0.02326        1.92000
C         -3.17897        1.14650        2.44000
N         -3.84761        1.26045        3.61664
C         -3.97860        0.13428        4.36694
C         -3.46542       -1.08905        3.94017
C         -2.79566       -1.15799        2.71170
N         -4.67890        0.15333        5.67975
O         -5.26607        1.19686        6.00101
O         -4.63856       -0.87255        6.38031
H          0.75440       -1.67214        1.14971
H          1.60052       -2.03632       -0.35925
H         -0.13629       -1.38220       -1.66107
H         -1.47334       -2.14609        0.58412
H         -2.31309       -1.41613       -0.78790
H         -1.54908        1.99304        0.16845
H         -0.37698        1.28942        1.30164
H         -0.62428        0.96166       -1.70914
H          1.49301        1.94455       -0.36028
H          1.78973        0.74394       -1.63764
H          2.79099       -0.22319        0.18669
H         -3.12872        2.07825        1.88165
H         -3.56323       -1.99153        4.53703
H         -2.39368       -2.12226        2.42001

--Link1--
%chk=JID_7180.chk
%mem=8GB
%nprocshared=4
# B3LYP/6-311++G(d,p) empiricaldispersion=gd3bj scf=xqc pop=npa geom=check

CID_64386889_JID_7180_Energie_neutraal

0 1

--Link1--
%chk=JID_7180.chk
%mem=8GB
%nprocshared=4
# B3LYP/6-311++G(d,p) empiricaldispersion=gd3bj scf=xqc pop=npa geom=check

CID_64386889_JID_7180_Energie_kation

1 2

--Link1--
%chk=JID_7180.chk
%mem=8GB
%nprocshared=4
# B3LYP/6-311++G(d,p) empiricaldispersion=gd3bj scf=xqc pop=npa geom=check

CID_64386889_JID_7180_Energie_anion

-1 2
