%chk=JID_5043.chk
%mem=8GB
%nprocshared=4
# opt freq B3LYP/6-31G(d) empiricaldispersion=gd3bj scf=xqc

CID_142954040_JID_5043_neutraal

0 1
C          1.05939        0.00643       -0.08020
C          0.44835        0.47776       -1.37979
C         -1.28276       -3.05497       -0.35125
C         -0.26900       -4.01512        0.21821
O         -0.53332       -4.65853        1.23751
N          0.99769       -4.08607       -0.28833
C          1.53223       -3.51101       -1.44729
C          0.87729       -3.55446       -2.68003
C          1.45018       -2.94876       -3.80088
C          2.66579       -2.27387       -3.68425
C          3.32520       -2.23127       -2.45084
C          2.78311       -2.89905       -1.34674
C          4.55728       -1.41563       -2.33634
O          5.17457       -0.92047       -3.25736
O          4.90817       -1.19767       -1.05520
H          0.93120       -1.06847        0.04837
H          0.57899        0.50424        0.76772
H          2.12844        0.23673       -0.05093
H          0.94773        0.01339       -2.23405
H         -0.61443        0.22182       -1.42059
H          0.54460        1.56343       -1.47620
H         -2.23059       -3.57681       -0.50176
H         -0.98955       -2.58558       -1.28675
H         -1.42745       -2.24964        0.37740
H          1.64824       -4.46847        0.38934
H         -0.06421       -4.08655       -2.79341
H          0.94301       -2.99129       -4.76211
H          3.08845       -1.76886       -4.55097
H          3.29404       -2.86475       -0.38756
H          5.67647       -0.59206       -1.11776

--Link1--
%chk=JID_5043.chk
%mem=8GB
%nprocshared=4
# B3LYP/6-311++G(d,p) empiricaldispersion=gd3bj scf=xqc pop=npa geom=check

CID_142954040_JID_5043_Energie_neutraal

0 1

--Link1--
%chk=JID_5043.chk
%mem=8GB
%nprocshared=4
# B3LYP/6-311++G(d,p) empiricaldispersion=gd3bj scf=xqc pop=npa geom=check

CID_142954040_JID_5043_Energie_kation

1 2

--Link1--
%chk=JID_5043.chk
%mem=8GB
%nprocshared=4
# B3LYP/6-311++G(d,p) empiricaldispersion=gd3bj scf=xqc pop=npa geom=check

CID_142954040_JID_5043_Energie_anion

-1 2
