%chk=JID_10993.chk
%mem=8GB
%nprocshared=4
# opt freq B3LYP/6-31G(d) empiricaldispersion=gd3bj scf=xqc

CID_139787256_JID_10993_neutraal

0 1
C          1.05762        0.05452       -0.06089
C          1.38375       -0.28588        1.38760
N          1.77229        0.90056        2.15533
C          0.74541        1.78544        2.63326
C          0.90926        3.17820        2.59220
C         -0.09410        4.04954        3.02873
C         -1.28795        3.52498        3.51348
C         -1.48306        2.14275        3.56126
C         -0.47342        1.28247        3.11665
O         -2.69855        1.76255        4.06559
C         -2.94773        0.36735        4.18113
O          0.21454        5.37830        2.91797
C         -0.76434        6.30583        3.37017
C          3.14237        1.20034        2.18317
O          3.97746        0.59172        1.52133
O          3.46183        2.17462        3.07688
C          4.83194        2.60337        3.27831
C          5.69391        1.46818        3.84033
C          5.42507        3.19656        1.99579
C          4.73678        3.71626        4.33356
H          0.20614        0.73971       -0.12421
H          0.80503       -0.85416       -0.61598
H          1.90937        0.53211       -0.55602
H          0.54207       -0.80327        1.85376
H          2.20864       -1.00876        1.40041
H          1.81107        3.62238        2.17881
H         -2.09170        4.16449        3.86278
H         -0.61681        0.21270        3.19126
H         -2.93921       -0.11745        3.19942
H         -2.23407       -0.10583        4.86363
H         -3.94814        0.24060        4.60609
H         -1.68390        6.22753        2.78085
H         -0.96620        6.17786        4.43882
H         -0.36185        7.31314        3.22603
H          5.85569        0.67407        3.10539
H          6.67939        1.83230        4.15025
H          5.20712        1.00177        4.70423
H          4.74854        3.94251        1.56362
H          6.39252        3.67306        2.18761
H          5.58352        2.43444        1.22697
H          4.09463        4.53251        3.98212
H          4.27986        3.34014        5.25643
H          5.72034        4.13073        4.57836

--Link1--
%chk=JID_10993.chk
%mem=8GB
%nprocshared=4
# B3LYP/6-311++G(d,p) empiricaldispersion=gd3bj scf=xqc pop=npa geom=check

CID_139787256_JID_10993_Energie_neutraal

0 1

--Link1--
%chk=JID_10993.chk
%mem=8GB
%nprocshared=4
# B3LYP/6-311++G(d,p) empiricaldispersion=gd3bj scf=xqc pop=npa geom=check

CID_139787256_JID_10993_Energie_kation

1 2

--Link1--
%chk=JID_10993.chk
%mem=8GB
%nprocshared=4
# B3LYP/6-311++G(d,p) empiricaldispersion=gd3bj scf=xqc pop=npa geom=check

CID_139787256_JID_10993_Energie_anion

-1 2
