%chk=JID_10914.chk
%mem=8GB
%nprocshared=4
# opt freq B3LYP/6-31G(d) empiricaldispersion=gd3bj scf=xqc

CID_43308251_JID_10914_neutraal

0 1
C          1.05995       -0.05332        0.05969
C          0.47008       -1.27427       -0.63589
N          0.91929       -2.55665       -0.06555
C          0.11484       -3.65245       -0.62671
C          0.51994       -5.00685       -0.04937
C          2.00433       -5.26239       -0.26990
C          2.86397       -4.12445        0.30960
C          2.36194       -2.78545       -0.28813
C          2.92134       -4.07639        1.87043
C          3.15108       -5.46539        2.48735
N          4.03138       -3.18458        2.27141
C          3.91610       -2.68016        3.64917
C          5.20803       -2.93244        4.44009
C          3.52097       -1.20649        3.71680
C          2.49705       -0.86285        4.62775
C          2.08284        0.45714        4.80320
C          2.68155        1.46976        4.06745
C          3.69237        1.15869        3.16055
C          4.13551       -0.16679        2.98009
C          5.20694       -0.40055        1.94973
H          0.90904       -0.10501        1.14312
H          0.56881        0.85573       -0.30323
H          2.13050        0.05433       -0.13746
H         -0.61974       -1.20054       -0.52779
H          0.68655       -1.22440       -1.71056
H          0.20736       -3.67963       -1.72069
H         -0.94518       -3.49130       -0.39511
H         -0.06406       -5.79878       -0.53218
H          0.28261       -5.04486        1.02044
H          2.29015       -6.23814        0.13384
H          2.19174       -5.32660       -1.35049
H          3.88773       -4.28990       -0.05663
H          2.94629       -1.97084        0.14723
H          2.57522       -2.77981       -1.36604
H          1.97192       -3.67608        2.24701
H          4.02308       -5.95930        2.04429
H          3.31293       -5.41389        3.56900
H          2.27850       -6.10980        2.34224
H          4.91745       -3.66952        2.14871
H          3.14210       -3.25398        4.17546
H          5.09924       -2.59597        5.47770
H          5.44359       -4.00257        4.46532
H          6.07322       -2.41284        4.01908
H          2.00815       -1.63685        5.21690
H          1.29242        0.69003        5.51077
H          2.36079        2.49963        4.19366
H          4.14094        1.96601        2.58457
H          5.76687        0.52064        1.75132
H          5.94394       -1.13429        2.27984
H          4.76078       -0.72749        1.00674

--Link1--
%chk=JID_10914.chk
%mem=8GB
%nprocshared=4
# B3LYP/6-311++G(d,p) empiricaldispersion=gd3bj scf=xqc pop=npa geom=check

CID_43308251_JID_10914_Energie_neutraal

0 1

--Link1--
%chk=JID_10914.chk
%mem=8GB
%nprocshared=4
# B3LYP/6-311++G(d,p) empiricaldispersion=gd3bj scf=xqc pop=npa geom=check

CID_43308251_JID_10914_Energie_kation

1 2

--Link1--
%chk=JID_10914.chk
%mem=8GB
%nprocshared=4
# B3LYP/6-311++G(d,p) empiricaldispersion=gd3bj scf=xqc pop=npa geom=check

CID_43308251_JID_10914_Energie_anion

-1 2
