%chk=JID_10798.chk
%mem=8GB
%nprocshared=4
# opt freq B3LYP/6-31G(d) empiricaldispersion=gd3bj scf=xqc

CID_105335591_JID_10798_neutraal

0 1
C          1.05629        0.06342       -0.05301
C          1.35085        1.15212       -1.07113
C          2.27666        0.68119       -2.19642
N          1.66875       -0.19687       -3.17674
C          2.15427       -1.32593       -3.80124
C          1.17245       -1.61615       -4.72923
N          0.18323       -0.68613       -4.67738
N          0.50610        0.19420       -3.74478
C          3.43405       -2.06124       -3.52853
C          4.69725       -1.20426       -3.43898
C          4.85834       -0.04036       -4.17971
S          6.29582        0.79557       -3.84480
C          6.84583       -0.43802       -2.78753
C          8.07221       -0.44803       -2.09045
C          8.39773       -1.54675       -1.29695
C          7.53168       -2.62255       -1.20969
C          6.31483       -2.60375       -1.89944
C          5.92362       -1.48807       -2.69087
N          3.25564       -3.02701       -2.41463
N          3.02075       -2.39358       -1.12635
H          0.56772       -0.79745       -0.51910
H          0.38714        0.44793        0.72358
H          1.97418       -0.27267        0.43827
H          0.40804        1.54008       -1.47295
H          1.83582        1.98570       -0.54896
H          2.62233        1.55618       -2.76049
H          3.15617        0.20033       -1.76791
H          1.13523       -2.43532       -5.43375
H          3.61641       -2.69379       -4.41132
H          4.15946        0.39225       -4.88447
H          8.76153        0.38762       -2.17691
H          9.34178       -1.56215       -0.75792
H          7.79487       -3.48714       -0.60524
H          5.66668       -3.47242       -1.81670
H          2.45857       -3.61999       -2.67031
H          2.82790       -3.09755       -0.40654
H          3.86910       -1.91899       -0.79692

--Link1--
%chk=JID_10798.chk
%mem=8GB
%nprocshared=4
# B3LYP/6-311++G(d,p) empiricaldispersion=gd3bj scf=xqc pop=npa geom=check

CID_105335591_JID_10798_Energie_neutraal

0 1

--Link1--
%chk=JID_10798.chk
%mem=8GB
%nprocshared=4
# B3LYP/6-311++G(d,p) empiricaldispersion=gd3bj scf=xqc pop=npa geom=check

CID_105335591_JID_10798_Energie_kation

1 2

--Link1--
%chk=JID_10798.chk
%mem=8GB
%nprocshared=4
# B3LYP/6-311++G(d,p) empiricaldispersion=gd3bj scf=xqc pop=npa geom=check

CID_105335591_JID_10798_Energie_anion

-1 2
