%chk=JID_9948.chk
%mem=8GB
%nprocshared=4
# opt freq B3LYP/6-31G(d) empiricaldispersion=gd3bj scf=xqc

CID_114800025_JID_9948_neutraal

0 1
C          1.03715        0.03095        0.08753
C          0.73709        1.24464        0.97579
C          1.40743        2.47566        0.35146
C         -0.79341        1.44796        1.19636
C         -1.08475        2.71826        2.02690
C         -2.56612        2.90519        2.31943
C         -3.10553        1.64980        2.95618
O         -3.62414        1.67953        4.06834
C         -2.95607        0.39528        2.10912
C         -1.44432        0.21240        1.87183
C         -3.57732       -0.86585        2.74625
N         -4.95720       -1.22612        2.38867
C         -5.20762       -1.49492        0.97741
C         -5.94849       -0.28077        0.44993
C         -6.72776        0.24149        1.65218
C         -5.99792       -0.32320        2.87778
C         -6.83398        1.77247        1.69617
C         -7.50877        2.39434        0.47764
O         -8.85688        1.96703        0.36339
H          0.50671        0.09858       -0.86820
H          0.75186       -0.90547        0.57536
H          2.10931       -0.04203       -0.12625
H          1.21130        1.06887        1.95039
H          0.90509        2.77263       -0.57525
H          1.40030        3.32745        1.03795
H          2.45811        2.27273        0.11627
H         -1.26513        1.57773        0.21195
H         -0.73589        3.61167        1.49866
H         -0.53283        2.66447        2.97417
H         -3.13294        3.10310        1.40323
H         -2.71734        3.75171        2.99711
H         -3.41879        0.59779        1.14077
H         -1.30663       -0.66935        1.23674
H         -0.93863        0.00982        2.82530
H         -2.96401       -1.73530        2.47391
H         -3.50497       -0.81719        3.84030
H         -5.85626       -2.37645        0.90391
H         -4.30417       -1.71497        0.39864
H         -5.24620        0.46884        0.07247
H         -6.61587       -0.54571       -0.37710
H         -7.73652       -0.19142        1.62910
H         -5.62919        0.45650        3.54646
H         -6.70803       -0.91045        3.47332
H         -7.40127        2.04993        2.59351
H         -5.83392        2.20995        1.79972
H         -7.51536        3.48415        0.58165
H         -6.98085        2.15683       -0.45111
H         -8.85311        1.02612        0.12094

--Link1--
%chk=JID_9948.chk
%mem=8GB
%nprocshared=4
# B3LYP/6-311++G(d,p) empiricaldispersion=gd3bj scf=xqc pop=npa geom=check

CID_114800025_JID_9948_Energie_neutraal

0 1

--Link1--
%chk=JID_9948.chk
%mem=8GB
%nprocshared=4
# B3LYP/6-311++G(d,p) empiricaldispersion=gd3bj scf=xqc pop=npa geom=check

CID_114800025_JID_9948_Energie_kation

1 2

--Link1--
%chk=JID_9948.chk
%mem=8GB
%nprocshared=4
# B3LYP/6-311++G(d,p) empiricaldispersion=gd3bj scf=xqc pop=npa geom=check

CID_114800025_JID_9948_Energie_anion

-1 2
