%chk=JID_7981.chk
%mem=8GB
%nprocshared=4
# opt freq B3LYP/6-31G(d) empiricaldispersion=gd3bj scf=xqc

CID_123437452_JID_7981_neutraal

0 1
C          0.95782        0.05163        0.07453
C          0.18408        1.01741        0.96088
C          0.38113        2.48166        0.56812
O         -0.36507        2.80633       -0.60829
C          0.30470        2.72986       -1.79908
C         -0.36613        2.11426       -2.86786
C          0.28942        1.98974       -4.10093
C          1.56048        2.53288       -4.28736
C          2.20932        3.16734       -3.23287
C          1.57376        3.28135       -1.99415
O          2.11682        2.36911       -5.52363
C          2.59659        3.57463       -6.13932
C          1.44987        4.41040       -6.74018
N          0.88298        5.35675       -5.76852
C         -0.30201        6.04455       -6.27888
C         -1.56439        5.19844       -6.17463
C         -1.73733        1.52519       -2.69245
H          2.01881        0.31739        0.03331
H          0.56420        0.03142       -0.94415
H          0.88021       -0.96478        0.47426
H         -0.88025        0.75868        0.92177
H          0.52210        0.88247        1.99479
H         -0.03414        3.10755        1.36658
H          1.44518        2.73046        0.50925
H         -0.19558        1.48200       -4.93112
H          3.20903        3.57242       -3.35277
H          2.08216        3.81692       -1.19908
H          3.24554        4.16300       -5.48071
H          3.23554        3.24139       -6.96584
H          1.85139        4.98944       -7.57966
H          0.67945        3.73305       -7.12395
H          0.63793        4.86068       -4.90959
H         -0.44645        6.94780       -5.67535
H         -0.14925        6.38312       -7.31010
H         -1.74262        4.88028       -5.14170
H         -2.43272        5.78113       -6.49882
H         -1.50929        4.30485       -6.80342
H         -2.22876        1.37416       -3.65958
H         -1.66922        0.55835       -2.18451
H         -2.37992        2.19399       -2.11062

--Link1--
%chk=JID_7981.chk
%mem=8GB
%nprocshared=4
# B3LYP/6-311++G(d,p) empiricaldispersion=gd3bj scf=xqc pop=npa geom=check

CID_123437452_JID_7981_Energie_neutraal

0 1

--Link1--
%chk=JID_7981.chk
%mem=8GB
%nprocshared=4
# B3LYP/6-311++G(d,p) empiricaldispersion=gd3bj scf=xqc pop=npa geom=check

CID_123437452_JID_7981_Energie_kation

1 2

--Link1--
%chk=JID_7981.chk
%mem=8GB
%nprocshared=4
# B3LYP/6-311++G(d,p) empiricaldispersion=gd3bj scf=xqc pop=npa geom=check

CID_123437452_JID_7981_Energie_anion

-1 2
