%chk=JID_8620.chk
%mem=8GB
%nprocshared=4
# opt freq B3LYP/6-31G(d) empiricaldispersion=gd3bj scf=xqc

CID_3034695_JID_8620_neutraal

0 1
C          0.99008       -0.06017       -0.07926
C          0.42418       -0.59442        1.24131
C          0.87816        0.12470        2.50553
C          0.79080       -0.55230        3.73764
C          1.19142        0.05661        4.93646
C          1.68122        1.36617        4.90985
C          1.76764        2.05247        3.69871
C          1.37173        1.43699        2.50813
C          1.08195       -0.73204        6.19400
O          0.70191       -1.89243        6.23116
O          1.46496        0.01074        7.26261
C          1.39225       -0.68449        8.50790
N         -1.03645       -0.75084        1.19409
C         -1.66092       -1.98651        1.29649
C         -2.98680       -1.82112        1.22591
N         -3.25210       -0.48760        1.07514
C         -2.04482        0.23426        1.05283
S         -1.97210        1.87707        0.88925
H          0.65625        0.95490       -0.30875
H          0.67754       -0.69815       -0.91375
H          2.08556       -0.05065       -0.05672
H          0.84284       -1.60907        1.32221
H          0.40054       -1.56944        3.76385
H          1.99517        1.86684        5.82199
H          2.13819        3.07492        3.68002
H          1.44059        2.01192        1.58735
H          0.36618       -1.00818        8.70907
H          2.07640       -1.53885        8.50880
H          1.69865        0.00523        9.29918
H         -1.10827       -2.90595        1.41885
H         -3.77058       -2.56098        1.27518
H         -4.16522       -0.06151        1.00106

--Link1--
%chk=JID_8620.chk
%mem=8GB
%nprocshared=4
# B3LYP/6-311++G(d,p) empiricaldispersion=gd3bj scf=xqc pop=npa geom=check

CID_3034695_JID_8620_Energie_neutraal

0 1

--Link1--
%chk=JID_8620.chk
%mem=8GB
%nprocshared=4
# B3LYP/6-311++G(d,p) empiricaldispersion=gd3bj scf=xqc pop=npa geom=check

CID_3034695_JID_8620_Energie_kation

1 2

--Link1--
%chk=JID_8620.chk
%mem=8GB
%nprocshared=4
# B3LYP/6-311++G(d,p) empiricaldispersion=gd3bj scf=xqc pop=npa geom=check

CID_3034695_JID_8620_Energie_anion

-1 2
