%chk=JID_9084.chk
%mem=8GB
%nprocshared=4
# opt freq B3LYP/6-31G(d) empiricaldispersion=gd3bj scf=xqc

CID_104043493_JID_9084_neutraal

0 1
C          1.08398       -0.01174        0.05300
C         -0.25819        0.69237        0.22378
C         -1.01080        0.91788       -1.08275
C         -1.74679       -0.32895       -1.57348
C         -2.64173       -0.83032       -0.43769
C         -1.89084       -1.01340        0.88646
O         -1.07498        0.10561        1.23568
C         -1.13783       -2.33407        1.01936
O         -0.88448       -1.41086       -1.92409
C         -0.33862       -1.38470       -3.18418
C          0.12538       -2.57917       -3.72431
C          0.85900       -2.53640       -4.91655
C          1.09185       -1.31643       -5.54729
C          0.62767       -0.17628       -4.89210
N         -0.09716       -0.18010       -3.74816
N          1.95811       -1.23909       -6.64242
C         -0.16709       -3.87183       -3.07277
O         -1.26812       -4.14298       -2.61696
N          0.86162       -4.77419       -3.01987
H          1.74583        0.56912       -0.59774
H          0.99940       -1.01101       -0.37190
H          1.57291       -0.12845        1.02632
H         -0.01021        1.68768        0.61480
H         -1.76580        1.69678       -0.90888
H         -0.32294        1.31693       -1.83300
H         -2.39033       -0.07826       -2.42745
H         -3.13350       -1.76936       -0.71842
H         -3.43178       -0.08441       -0.27910
H         -2.65831       -1.04816        1.67080
H         -0.62175       -2.38025        1.98458
H         -1.82955       -3.18055        0.95681
H         -0.37756       -2.47668        0.25190
H          1.23733       -3.45513       -5.35469
H          0.84515        0.81538       -5.28009
H          1.85461       -0.39620       -7.20139
H          1.98315       -2.07535       -7.21906
H          1.82186       -4.51281       -3.19435
H          0.68892       -5.61805       -2.48758

--Link1--
%chk=JID_9084.chk
%mem=8GB
%nprocshared=4
# B3LYP/6-311++G(d,p) empiricaldispersion=gd3bj scf=xqc pop=npa geom=check

CID_104043493_JID_9084_Energie_neutraal

0 1

--Link1--
%chk=JID_9084.chk
%mem=8GB
%nprocshared=4
# B3LYP/6-311++G(d,p) empiricaldispersion=gd3bj scf=xqc pop=npa geom=check

CID_104043493_JID_9084_Energie_kation

1 2

--Link1--
%chk=JID_9084.chk
%mem=8GB
%nprocshared=4
# B3LYP/6-311++G(d,p) empiricaldispersion=gd3bj scf=xqc pop=npa geom=check

CID_104043493_JID_9084_Energie_anion

-1 2
