%chk=JID_5219.chk
%mem=8GB
%nprocshared=4
# opt freq B3LYP/6-31G(d) empiricaldispersion=gd3bj scf=xqc

CID_79895903_JID_5219_neutraal

0 1
C          2.62200       -0.06300        0.04000
C          1.88749       -1.39170        0.10789
O          0.67207       -1.25812        0.84121
C         -0.25236       -0.33543        0.26512
C         -1.49684       -0.27959        1.14034
C         -2.57720        0.17537        0.18205
O         -2.18456       -0.24682       -1.13194
C         -0.87931       -0.83863       -1.03875
C          0.38767        1.06189        0.13156
C          1.73254        1.00710       -0.60552
N          2.46819        2.27469       -0.57082
C          2.02845        3.29076       -1.52506
C          0.97686        4.29189       -1.02869
C          1.32679        5.06425        0.24482
N          2.52803        5.87577        0.09760
H          3.55474       -0.18375       -0.52360
H          2.88948        0.24578        1.05954
H          1.68077       -1.78934       -0.89195
H          2.50658       -2.12939        0.62854
H         -1.73450       -1.28131        1.52193
H         -1.40364        0.37300        2.01412
H         -2.67042        1.26620        0.17033
H         -3.55449       -0.25097        0.42621
H         -0.30698       -0.57969       -1.93353
H         -0.99978       -1.92849       -1.02941
H          0.55820        1.46965        1.13757
H         -0.29964        1.74104       -0.37993
H          1.57093        0.71274       -1.64975
H          2.52544        2.64254        0.37554
H          2.92148        3.85372       -1.82174
H          1.67085        2.82322       -2.45075
H          0.79401        5.01372       -1.83619
H          0.02112        3.78316       -0.87169
H          0.49074        5.72969        0.48794
H          1.44227        4.38254        1.09369
H          2.70594        6.38071        0.96529
H          3.33867        5.27421       -0.04919

--Link1--
%chk=JID_5219.chk
%mem=8GB
%nprocshared=4
# B3LYP/6-311++G(d,p) empiricaldispersion=gd3bj scf=xqc pop=npa geom=check

CID_79895903_JID_5219_Energie_neutraal

0 1

--Link1--
%chk=JID_5219.chk
%mem=8GB
%nprocshared=4
# B3LYP/6-311++G(d,p) empiricaldispersion=gd3bj scf=xqc pop=npa geom=check

CID_79895903_JID_5219_Energie_kation

1 2

--Link1--
%chk=JID_5219.chk
%mem=8GB
%nprocshared=4
# B3LYP/6-311++G(d,p) empiricaldispersion=gd3bj scf=xqc pop=npa geom=check

CID_79895903_JID_5219_Energie_anion

-1 2
