%chk=JID_272.chk
%mem=8GB
%nprocshared=4
# opt freq B3LYP/6-31G(d) empiricaldispersion=gd3bj scf=xqc

CID_55285916_JID_272_neutraal

0 1
C          1.02474       -0.09580       -0.01447
C          0.50475       -0.27969       -1.44113
O          0.89789       -1.53764       -1.97919
C          0.41100       -1.08054        0.94511
C         -0.35340       -0.82244        2.02096
C         -0.83162        0.51080        2.52380
C         -2.38479        0.57555        2.47304
O         -3.09249        0.76843        3.45980
N         -2.94920        0.44679        1.23335
N         -0.36949        0.69528        3.90984
H          0.84482        0.93670        0.29605
H          2.11023       -0.25133        0.00143
H         -0.58819       -0.22180       -1.47322
H          0.90355        0.50431       -2.09303
H          1.86964       -1.57740       -1.95486
H          0.64686       -2.12557        0.73777
H         -0.68618       -1.68010        2.60665
H         -0.45431        1.34481        1.92611
H         -2.43759        0.00358        0.48092
H         -3.95947        0.39519        1.20492
H         -0.71835        1.60320        4.22444
H         -0.89135        0.03892        4.49543

--Link1--
%chk=JID_272.chk
%mem=8GB
%nprocshared=4
# B3LYP/6-311++G(d,p) empiricaldispersion=gd3bj scf=xqc pop=npa geom=check

CID_55285916_JID_272_Energie_neutraal

0 1

--Link1--
%chk=JID_272.chk
%mem=8GB
%nprocshared=4
# B3LYP/6-311++G(d,p) empiricaldispersion=gd3bj scf=xqc pop=npa geom=check

CID_55285916_JID_272_Energie_kation

1 2

--Link1--
%chk=JID_272.chk
%mem=8GB
%nprocshared=4
# B3LYP/6-311++G(d,p) empiricaldispersion=gd3bj scf=xqc pop=npa geom=check

CID_55285916_JID_272_Energie_anion

-1 2
