%chk=JID_1608.chk
%mem=8GB
%nprocshared=4
# opt freq B3LYP/6-31G(d) empiricaldispersion=gd3bj scf=xqc

CID_123629737_JID_1608_neutraal

0 1
C          0.94280       -0.06116       -0.05466
C          1.28380       -0.01924        1.41707
C          0.90315        1.20608        2.20386
C          0.14405       -0.08534        2.46769
C         -1.29521       -0.14066        1.99431
C          0.36903       -0.88767        3.75181
C          0.49187       -0.05587        5.03138
C         -0.79581        0.59327        5.44695
C         -0.76402        1.69142        6.47933
C         -1.12299        2.01082        5.05581
C          2.64401       -0.61302        1.71023
H          0.07896        0.55969       -0.30914
H          0.72746       -1.09021       -0.36014
H          1.78363        0.30442       -0.65411
H          1.60553        1.57993        2.94013
H          0.38814        2.01315        1.69094
H         -1.51171       -1.12556        1.56751
H         -1.98600        0.02795        2.82648
H         -1.52050        0.61756        1.23816
H         -0.45367       -1.60550        3.87191
H          1.26394       -1.51083        3.66069
H          0.79298       -0.73081        5.84261
H          1.29464        0.68339        4.94030
H         -1.61070       -0.11947        5.51739
H         -1.55413        1.71476        7.22109
H          0.19694        2.03450        6.84648
H         -0.40618        2.57160        4.46801
H         -2.15728        2.24638        4.83210
H          2.62575       -1.69605        1.55189
H          3.40033       -0.18261        1.04488
H          2.97578       -0.41788        2.73537

--Link1--
%chk=JID_1608.chk
%mem=8GB
%nprocshared=4
# B3LYP/6-311++G(d,p) empiricaldispersion=gd3bj scf=xqc pop=npa geom=check

CID_123629737_JID_1608_Energie_neutraal

0 1

--Link1--
%chk=JID_1608.chk
%mem=8GB
%nprocshared=4
# B3LYP/6-311++G(d,p) empiricaldispersion=gd3bj scf=xqc pop=npa geom=check

CID_123629737_JID_1608_Energie_kation

1 2

--Link1--
%chk=JID_1608.chk
%mem=8GB
%nprocshared=4
# B3LYP/6-311++G(d,p) empiricaldispersion=gd3bj scf=xqc pop=npa geom=check

CID_123629737_JID_1608_Energie_anion

-1 2
