%chk=JID_2303.chk
%mem=8GB
%nprocshared=4
# opt freq B3LYP/6-31G(d) empiricaldispersion=gd3bj scf=xqc

CID_107417421_JID_2303_neutraal

0 1
C          1.69800        0.03400       -0.78800
C          0.86819       -0.03939        0.49574
C          0.04833       -1.33244        0.55196
C         -1.31819       -1.00229       -0.04710
C         -1.33900        0.50500       -0.28410
C         -0.19377        1.07669        0.56075
C         -0.67524        1.39027        1.99314
N          0.36677        2.07131        2.76580
C         -0.12089        2.33880        4.12695
C          0.12284        1.13126        5.06013
N          0.70034        2.06388        6.06027
C          0.99621        3.01265        4.95469
H          2.43974       -0.77167       -0.80941
H          1.08168       -0.05878       -1.68774
H          2.23705        0.98557       -0.84273
H          1.56584       -0.00198        1.33841
H          0.53006       -2.16548        0.02942
H         -0.08216       -1.64317        1.59580
H         -2.11411       -1.29834        0.64538
H         -1.48461       -1.54348       -0.98457
H         -2.31339        0.94244       -0.04383
H         -1.15247        0.70757       -1.34587
H          0.17290        2.00574        0.10609
H         -1.55457        2.04369        1.93266
H         -0.98665        0.46944        2.50033
H          1.23695        1.54142        2.73587
H         -1.10063        2.82184        4.21632
H         -0.77864        0.60947        5.39565
H          0.84530        0.38251        4.71202
H          0.00656        2.42598        6.71534
H          2.01937        2.91012        4.57202
H          0.82539        4.06455        5.20384

--Link1--
%chk=JID_2303.chk
%mem=8GB
%nprocshared=4
# B3LYP/6-311++G(d,p) empiricaldispersion=gd3bj scf=xqc pop=npa geom=check

CID_107417421_JID_2303_Energie_neutraal

0 1

--Link1--
%chk=JID_2303.chk
%mem=8GB
%nprocshared=4
# B3LYP/6-311++G(d,p) empiricaldispersion=gd3bj scf=xqc pop=npa geom=check

CID_107417421_JID_2303_Energie_kation

1 2

--Link1--
%chk=JID_2303.chk
%mem=8GB
%nprocshared=4
# B3LYP/6-311++G(d,p) empiricaldispersion=gd3bj scf=xqc pop=npa geom=check

CID_107417421_JID_2303_Energie_anion

-1 2
