%chk=JID_9519.chk
%mem=8GB
%nprocshared=4
# opt freq B3LYP/6-31G(d) empiricaldispersion=gd3bj scf=xqc

CID_89600253_JID_9519_neutraal

0 1
C         -2.96911       -1.43227       -3.66412
C         -2.61721       -2.66660       -2.83955
C         -2.22476       -3.80792       -3.79007
C         -1.49554       -2.48882       -1.77709
C         -1.53526       -1.30815       -0.74511
C         -0.70162       -1.63043        0.55819
C         -1.30512       -2.69460        1.49707
C         -0.17259       -2.99787        2.46265
C          1.05965       -3.03532        1.57811
C          0.73846       -2.15547        0.36663
C         -2.99975       -1.04790       -0.25142
O         -3.50389        0.02625        0.04684
O         -3.73486       -2.16732       -0.07475
N         -1.12807       -0.05256       -1.43637
C          0.20340        0.53033       -1.28869
C          0.14564        1.97076       -1.81535
C          0.45371        1.87363       -3.30699
N          0.87424        0.49105       -3.55601
C          1.24970       -0.05666       -2.24680
H         -2.09697       -1.05171       -4.20563
H         -3.37819       -0.63264       -3.04077
H         -3.73640       -1.67354       -4.40863
H         -3.53219       -2.99225       -2.33304
H         -1.32770       -3.55381       -4.36539
H         -2.02195       -4.72851       -3.23260
H         -3.03196       -4.02052       -4.49922
H         -1.45671       -3.43475       -1.22201
H         -0.53986       -2.44646       -2.31431
H         -0.64932       -0.70784        1.15654
H         -2.18110       -2.32734        2.04026
H         -1.58673       -3.60498        0.95789
H         -0.32521       -3.93588        3.00422
H         -0.08104       -2.19216        3.20081
H          1.25970       -4.06100        1.24696
H          1.94789       -2.68524        2.11381
H          0.84796       -2.75617       -0.54048
H          1.46511       -1.34105        0.30793
H         -4.58819       -1.81441        0.25440
H         -1.33989       -0.09404       -2.43215
H          0.53212        0.56135       -0.24824
H          0.92428        2.56691       -1.32171
H         -0.81228        2.46579       -1.62017
H         -0.42908        2.10388       -3.91132
H          1.24606        2.57952       -3.57936
H          1.66419        0.46416       -4.19842
H          2.25373        0.28907       -1.97006
H          1.26655       -1.14725       -2.27057

--Link1--
%chk=JID_9519.chk
%mem=8GB
%nprocshared=4
# B3LYP/6-311++G(d,p) empiricaldispersion=gd3bj scf=xqc pop=npa geom=check

CID_89600253_JID_9519_Energie_neutraal

0 1

--Link1--
%chk=JID_9519.chk
%mem=8GB
%nprocshared=4
# B3LYP/6-311++G(d,p) empiricaldispersion=gd3bj scf=xqc pop=npa geom=check

CID_89600253_JID_9519_Energie_kation

1 2

--Link1--
%chk=JID_9519.chk
%mem=8GB
%nprocshared=4
# B3LYP/6-311++G(d,p) empiricaldispersion=gd3bj scf=xqc pop=npa geom=check

CID_89600253_JID_9519_Energie_anion

-1 2
