%chk=JID_1738.chk
%mem=8GB
%nprocshared=4
# opt freq B3LYP/6-31G(d) empiricaldispersion=gd3bj scf=xqc

CID_85794979_JID_1738_neutraal

0 1
C          0.91870       -0.05820        0.00159
C          0.30080       -1.34447       -0.52443
C          0.95052       -2.59481        0.04079
C          0.08397       -3.87786        0.07892
C          0.40852       -3.13906        1.29399
C         -0.35931       -2.62906        2.42927
C          0.92917       -3.44221        2.62697
C          0.86352       -4.82195        3.18251
O          2.03603       -5.52924        2.80705
C          2.43462       -2.77901       -0.22128
C          2.76206       -2.90297       -1.70134
H          0.91830       -0.03384        1.09550
H          0.35393        0.80689       -0.36019
H          1.95258        0.05603       -0.33801
H         -0.76968       -1.33479       -0.28202
H          0.36114       -1.35935       -1.61840
H         -0.92971       -3.82310       -0.30087
H          0.56876       -4.82971       -0.09941
H         -0.31846       -1.56989        2.65086
H         -1.30717       -3.09985        2.65957
H          1.80214       -2.90434        2.97783
H          0.82190       -4.78771        4.27524
H         -0.00915       -5.37848        2.82497
H          2.08163       -5.49238        1.83669
H          2.99763       -1.94604        0.21383
H          2.79675       -3.68362        0.28358
H          2.53670       -1.97733       -2.23955
H          3.82730       -3.11556       -1.83613
H          2.18986       -3.71238       -2.16586

--Link1--
%chk=JID_1738.chk
%mem=8GB
%nprocshared=4
# B3LYP/6-311++G(d,p) empiricaldispersion=gd3bj scf=xqc pop=npa geom=check

CID_85794979_JID_1738_Energie_neutraal

0 1

--Link1--
%chk=JID_1738.chk
%mem=8GB
%nprocshared=4
# B3LYP/6-311++G(d,p) empiricaldispersion=gd3bj scf=xqc pop=npa geom=check

CID_85794979_JID_1738_Energie_kation

1 2

--Link1--
%chk=JID_1738.chk
%mem=8GB
%nprocshared=4
# B3LYP/6-311++G(d,p) empiricaldispersion=gd3bj scf=xqc pop=npa geom=check

CID_85794979_JID_1738_Energie_anion

-1 2
