%chk=JID_4662.chk
%mem=8GB
%nprocshared=4
# opt freq B3LYP/6-31G(d) empiricaldispersion=gd3bj scf=xqc

CID_130011860_JID_4662_neutraal

0 1
C          0.94429        0.06260       -0.05457
C          0.78536       -1.41334        0.27997
C          1.08197       -1.68569        1.75807
C          1.00007       -3.12637        2.22200
C          1.39030       -3.41330        3.54783
C          1.34441       -4.70964        4.05929
C          0.89488       -5.73715        3.21776
C          0.48344       -5.48047        1.90317
C          0.54798       -4.17326        1.41135
C          0.02991       -6.60874        1.02363
N          1.72061       -5.10016        5.35779
C          2.15894       -4.44673        6.46783
O          2.43125       -5.12416        7.46439
C          2.30730       -2.95657        6.51156
H          0.25853        0.67543        0.53914
H          0.72592        0.23666       -1.11286
H          1.96652        0.40169        0.14138
H         -0.23852       -1.72035        0.03611
H          1.46285       -1.99604       -0.35549
H          0.38379       -1.09917        2.36946
H          2.09391       -1.32076        1.97856
H          1.73747       -2.57833        4.13991
H          0.85466       -6.76195        3.58261
H          0.23999       -3.98638        0.38565
H          0.89633       -7.16187        0.64807
H         -0.61838       -7.29329        1.58064
H         -0.54528       -6.23958        0.16808
H          1.66517       -6.09463        5.54940
H          3.09913       -2.63448        5.83163
H          1.35475       -2.47045        6.28910
H          2.59808       -2.65649        7.52388

--Link1--
%chk=JID_4662.chk
%mem=8GB
%nprocshared=4
# B3LYP/6-311++G(d,p) empiricaldispersion=gd3bj scf=xqc pop=npa geom=check

CID_130011860_JID_4662_Energie_neutraal

0 1

--Link1--
%chk=JID_4662.chk
%mem=8GB
%nprocshared=4
# B3LYP/6-311++G(d,p) empiricaldispersion=gd3bj scf=xqc pop=npa geom=check

CID_130011860_JID_4662_Energie_kation

1 2

--Link1--
%chk=JID_4662.chk
%mem=8GB
%nprocshared=4
# B3LYP/6-311++G(d,p) empiricaldispersion=gd3bj scf=xqc pop=npa geom=check

CID_130011860_JID_4662_Energie_anion

-1 2
