%chk=JID_8581.chk
%mem=8GB
%nprocshared=4
# opt freq B3LYP/6-31G(d) empiricaldispersion=gd3bj scf=xqc

CID_112363557_JID_8581_neutraal

0 1
C          0.96049       -0.02593       -0.08813
C         -0.38386        0.35016       -0.71681
C         -0.62856       -0.49695       -1.96802
C         -1.51051        0.17869        0.32644
N         -2.83612        0.56249       -0.17478
C         -3.00512        2.01880       -0.30847
C         -3.85459        2.46875        0.86527
C         -4.75907        1.27654        1.09498
C         -3.92386        0.06953        0.69661
C         -5.40299        1.20282        2.46656
O         -6.63449        1.21041        2.56870
N         -4.69687        1.15242        3.62721
C         -3.30146        0.81886        3.86658
C         -2.68998        1.49652        5.11889
C         -3.53002        1.20879        6.37652
C         -1.28179        0.90348        5.33470
C         -2.59074        3.02325        4.91943
O         -1.71698        3.35776        3.84698
H          0.97208       -1.07359        0.23137
H          1.16834        0.59854        0.78723
H          1.77787        0.11905       -0.80250
H         -0.31805        1.40020       -1.02454
H         -0.71872       -1.55930       -1.71691
H         -1.54446       -0.19003       -2.48299
H          0.19871       -0.38747       -2.67755
H         -1.53034       -0.88146        0.61398
H         -1.26324        0.74523        1.23281
H         -3.54603        2.20982       -1.24351
H         -2.07014        2.58491       -0.36231
H         -3.22904        2.69996        1.72946
H         -4.42699        3.37215        0.62955
H         -5.58639        1.35580        0.37310
H         -3.55724       -0.49869        1.55645
H         -4.54043       -0.63153        0.12111
H         -5.33392        1.04254        4.40783
H         -3.27539       -0.27151        3.98500
H         -2.70357        1.05113        2.98671
H         -3.69148        0.13290        6.50657
H         -3.02770        1.58030        7.27724
H         -4.51012        1.69510        6.33160
H         -0.65298        1.01875        4.44493
H         -0.77122        1.39316        6.17155
H         -1.33616       -0.16792        5.55962
H         -3.57245        3.45281        4.69302
H         -2.22254        3.51948        5.82514
H         -0.81168        3.38304        4.20225

--Link1--
%chk=JID_8581.chk
%mem=8GB
%nprocshared=4
# B3LYP/6-311++G(d,p) empiricaldispersion=gd3bj scf=xqc pop=npa geom=check

CID_112363557_JID_8581_Energie_neutraal

0 1

--Link1--
%chk=JID_8581.chk
%mem=8GB
%nprocshared=4
# B3LYP/6-311++G(d,p) empiricaldispersion=gd3bj scf=xqc pop=npa geom=check

CID_112363557_JID_8581_Energie_kation

1 2

--Link1--
%chk=JID_8581.chk
%mem=8GB
%nprocshared=4
# B3LYP/6-311++G(d,p) empiricaldispersion=gd3bj scf=xqc pop=npa geom=check

CID_112363557_JID_8581_Energie_anion

-1 2
