%chk=JID_8347.chk
%mem=8GB
%nprocshared=4
# opt freq B3LYP/6-31G(d) empiricaldispersion=gd3bj scf=xqc

CID_138887064_JID_8347_neutraal

0 1
C          1.05711       -0.06438        0.05093
C          0.56329       -0.10991       -1.38446
C          1.06073       -1.32024       -2.16944
C          0.36943       -2.61162       -1.75763
O         -0.76072       -2.82162       -2.21153
N          1.01702       -3.49709       -0.89002
C          2.38942       -3.35893       -0.36125
C          2.48941       -3.31769        1.16991
C          2.65308       -4.68514        1.81704
C          0.38133       -4.76440       -0.68146
C         -0.68472       -4.87135        0.23970
C         -1.26263       -6.13149        0.47574
C         -0.83429       -7.26838       -0.21405
C          0.20188       -7.14529       -1.14275
C          0.80107       -5.90143       -1.40818
C          1.86674       -5.85612       -2.46928
C         -1.44306       -8.60893        0.07216
C         -1.18128       -3.71017        1.05778
H          0.63611       -0.88391        0.63840
H          0.74850        0.87309        0.52472
H          2.14880       -0.12188        0.09708
H         -0.53286       -0.08383       -1.38547
H          0.90295        0.79863       -1.89611
H          0.80154       -1.17068       -3.22698
H          2.14806       -1.38759       -2.17118
H          3.02303       -4.15242       -0.76830
H          2.82872       -2.42954       -0.71946
H          3.37926       -2.73156        1.43303
H          1.63301       -2.79604        1.60714
H          3.51536       -5.21535        1.40053
H          2.81887       -4.56937        2.89325
H          1.76946       -5.31237        1.68836
H         -2.06142       -6.22382        1.20984
H          0.53766       -8.02812       -1.68454
H          1.91808       -4.87787       -2.95617
H          2.84173       -6.09636       -2.03499
H          1.65331       -6.58253       -3.26164
H         -0.87057       -9.12094        0.85165
H         -2.48079       -8.50555        0.40625
H         -1.45351       -9.23250       -0.82806
H         -0.60025       -3.62986        1.98129
H         -1.12409       -2.76311        0.51695
H         -2.23478       -3.84777        1.32602

--Link1--
%chk=JID_8347.chk
%mem=8GB
%nprocshared=4
# B3LYP/6-311++G(d,p) empiricaldispersion=gd3bj scf=xqc pop=npa geom=check

CID_138887064_JID_8347_Energie_neutraal

0 1

--Link1--
%chk=JID_8347.chk
%mem=8GB
%nprocshared=4
# B3LYP/6-311++G(d,p) empiricaldispersion=gd3bj scf=xqc pop=npa geom=check

CID_138887064_JID_8347_Energie_kation

1 2

--Link1--
%chk=JID_8347.chk
%mem=8GB
%nprocshared=4
# B3LYP/6-311++G(d,p) empiricaldispersion=gd3bj scf=xqc pop=npa geom=check

CID_138887064_JID_8347_Energie_anion

-1 2
