%chk=JID_7017.chk
%mem=8GB
%nprocshared=4
# opt freq B3LYP/6-31G(d) empiricaldispersion=gd3bj scf=xqc

CID_94686885_JID_7017_neutraal

0 1
C          1.04178       -0.01858        0.08894
C          0.07443        0.30707        1.21838
C          0.68915        1.25950        2.21693
C          1.52894        0.80436        3.24614
C          2.09052        1.72080        4.13939
C          1.85803        3.09108        3.98787
C          1.05022        3.56618        2.94883
C          0.46104        2.63918        2.07759
C          0.79828        5.04620        2.77025
N         -0.34331        5.52977        3.53993
C         -0.13232        5.76453        4.96101
C         -1.60347        5.46480        2.95262
O         -1.76274        5.16497        1.76451
C         -2.83180        5.79180        3.81495
N         -3.03485        4.77789        4.86139
O          1.71495       -0.55118        3.33233
C          2.97231       -0.96638        3.85314
H          1.33829        0.88674       -0.45170
H          0.57137       -0.70118       -0.62587
H          1.95178       -0.49780        0.46499
H         -0.83998        0.74625        0.80058
H         -0.24379       -0.61414        1.72068
H          2.70422        1.39258        4.97162
H          2.31080        3.78499        4.69180
H         -0.18146        2.99861        1.27354
H          1.68752        5.61919        3.06070
H          0.64602        5.26143        1.70520
H         -0.87622        6.45090        5.36905
H         -0.18666        4.81177        5.49456
H          0.85345        6.21439        5.11359
H         -2.72940        6.79117        4.24733
H         -3.71002        5.80873        3.15979
H         -3.95607        4.91409        5.27460
H         -3.06197        3.85910        4.41426
H          3.09579       -2.02779        3.61704
H          3.80160       -0.42284        3.38698
H          2.99642       -0.86297        4.94218

--Link1--
%chk=JID_7017.chk
%mem=8GB
%nprocshared=4
# B3LYP/6-311++G(d,p) empiricaldispersion=gd3bj scf=xqc pop=npa geom=check

CID_94686885_JID_7017_Energie_neutraal

0 1

--Link1--
%chk=JID_7017.chk
%mem=8GB
%nprocshared=4
# B3LYP/6-311++G(d,p) empiricaldispersion=gd3bj scf=xqc pop=npa geom=check

CID_94686885_JID_7017_Energie_kation

1 2

--Link1--
%chk=JID_7017.chk
%mem=8GB
%nprocshared=4
# B3LYP/6-311++G(d,p) empiricaldispersion=gd3bj scf=xqc pop=npa geom=check

CID_94686885_JID_7017_Energie_anion

-1 2
