%chk=JID_10833.chk
%mem=8GB
%nprocshared=4
# opt freq B3LYP/6-31G(d) empiricaldispersion=gd3bj scf=xqc

CID_136280676_JID_10833_neutraal

0 1
C          1.04258        0.06121        0.06664
C          0.23047        1.08773        0.35079
C         -1.26708        1.00551        0.35866
N         -1.89710        1.12567        1.65857
C         -3.35399        1.19045        1.70053
C         -3.97600       -0.10599        1.18752
N         -5.00766       -0.09902        0.40486
C         -5.51875       -1.34435       -0.00952
C         -6.66023       -1.37245       -0.81209
C         -7.19473       -2.58989       -1.24783
C         -6.58644       -3.79449       -0.89055
C         -5.44720       -3.78513       -0.08905
C         -4.92994       -2.56251        0.34899
C         -3.75008       -2.51353        1.22570
O         -3.13851       -3.51936        1.56464
N         -3.38518       -1.25988        1.62908
C         -1.14368        1.34269        2.88607
C         -0.55172        0.04685        3.42763
O          0.58388       -0.11785        3.83701
O         -1.45358       -0.96127        3.51297
H          0.65712       -0.92783       -0.16231
H          2.12099        0.18876        0.06915
H          0.67063        2.05946        0.56366
H         -1.63560        1.80117       -0.30110
H         -1.57010        0.05962       -0.10653
H         -3.72606        1.33591        2.72164
H         -3.71865        2.03372        1.10290
H         -7.13755       -0.43811       -1.09599
H         -8.08810       -2.59609       -1.86767
H         -7.00247       -4.73899       -1.23265
H         -4.96938       -4.71871        0.19810
H         -2.56791       -1.18737        2.22746
H         -0.33298        2.06439        2.74056
H         -1.77047        1.76411        3.68093
H         -0.94439       -1.69696        3.92150

--Link1--
%chk=JID_10833.chk
%mem=8GB
%nprocshared=4
# B3LYP/6-311++G(d,p) empiricaldispersion=gd3bj scf=xqc pop=npa geom=check

CID_136280676_JID_10833_Energie_neutraal

0 1

--Link1--
%chk=JID_10833.chk
%mem=8GB
%nprocshared=4
# B3LYP/6-311++G(d,p) empiricaldispersion=gd3bj scf=xqc pop=npa geom=check

CID_136280676_JID_10833_Energie_kation

1 2

--Link1--
%chk=JID_10833.chk
%mem=8GB
%nprocshared=4
# B3LYP/6-311++G(d,p) empiricaldispersion=gd3bj scf=xqc pop=npa geom=check

CID_136280676_JID_10833_Energie_anion

-1 2
