%chk=JID_9471.chk
%mem=8GB
%nprocshared=4
# opt freq B3LYP/6-31G(d) empiricaldispersion=gd3bj scf=xqc

CID_6932537_JID_9471_neutraal

0 1
C          1.04796        0.05716        0.06657
C          0.78759        0.27046       -1.40134
O         -0.04433       -0.40509       -2.00649
C          1.47216        1.38966       -2.09560
C          0.64200        2.25312       -2.83181
C          1.17823        3.36007       -3.48755
C          2.54463        3.60848       -3.41252
C          3.37552        2.74356       -2.69609
C          2.85789        1.61284       -2.04511
S          4.02285        0.52291       -1.23477
C          4.48644       -0.52545       -2.61494
C          3.77235       -1.73141       -2.75026
C          4.01803       -2.60170       -3.81380
C          4.98091       -2.27850       -4.76133
C          5.70073       -1.09103       -4.63490
C          5.47798       -0.20480       -3.55969
C          6.31257        1.04688       -3.50281
O          6.41099        1.70950       -4.58451
O          6.87569        1.33872       -2.40336
H          1.64439       -0.84672        0.21028
H          0.08729       -0.05859        0.57797
H          1.55060        0.91686        0.51707
H         -0.42642        2.05857       -2.89487
H          0.53587        4.02125       -4.06202
H          2.98286        4.45821       -3.93043
H          4.44800        2.94597       -2.67813
H          3.00425       -1.99711       -2.02818
H          3.44959       -3.52200       -3.90355
H          5.17457       -2.94041       -5.59946
H          6.45247       -0.82934       -5.37891

--Link1--
%chk=JID_9471.chk
%mem=8GB
%nprocshared=4
# B3LYP/6-311++G(d,p) empiricaldispersion=gd3bj scf=xqc pop=npa geom=check

CID_6932537_JID_9471_Energie_neutraal

0 1

--Link1--
%chk=JID_9471.chk
%mem=8GB
%nprocshared=4
# B3LYP/6-311++G(d,p) empiricaldispersion=gd3bj scf=xqc pop=npa geom=check

CID_6932537_JID_9471_Energie_kation

1 2

--Link1--
%chk=JID_9471.chk
%mem=8GB
%nprocshared=4
# B3LYP/6-311++G(d,p) empiricaldispersion=gd3bj scf=xqc pop=npa geom=check

CID_6932537_JID_9471_Energie_anion

-1 2
