%chk=JID_617.chk
%mem=8GB
%nprocshared=4
# opt freq B3LYP/6-31G(d) empiricaldispersion=gd3bj scf=xqc

CID_148578993_JID_617_neutraal

0 1
C          2.12000       -0.67600       -0.36300
C          1.29625       -1.41422       -1.45365
C         -0.18864       -0.99666       -1.29894
C         -0.49516       -1.18225        0.20493
C         -0.08095        0.21944        0.67505
C          1.34049        0.58627        0.06137
C          0.96038        1.27836       -1.26254
C         -0.38404        0.57679       -1.49582
C         -1.05977        1.01840       -0.19121
S         -1.28153       -1.97632       -2.35721
H          2.28735       -1.32556        0.50391
H          3.10694       -0.41502       -0.76208
H          1.66861       -1.15320       -2.45211
H          1.43542       -2.49581       -1.33317
H         -1.55542       -1.37483        0.41341
H          0.07771       -1.98305        0.68483
H         -0.17037        0.37566        1.75126
H          1.92383        1.23716        0.71824
H          0.84384        2.36096       -1.13052
H          1.68013        1.12822       -2.07354
H         -0.88951        0.89377       -2.41037
H         -1.01928        2.09693       -0.00416
H         -2.10238        0.69180       -0.11350
H         -0.76961       -1.56885       -3.52791

--Link1--
%chk=JID_617.chk
%mem=8GB
%nprocshared=4
# B3LYP/6-311++G(d,p) empiricaldispersion=gd3bj scf=xqc pop=npa geom=check

CID_148578993_JID_617_Energie_neutraal

0 1

--Link1--
%chk=JID_617.chk
%mem=8GB
%nprocshared=4
# B3LYP/6-311++G(d,p) empiricaldispersion=gd3bj scf=xqc pop=npa geom=check

CID_148578993_JID_617_Energie_kation

1 2

--Link1--
%chk=JID_617.chk
%mem=8GB
%nprocshared=4
# B3LYP/6-311++G(d,p) empiricaldispersion=gd3bj scf=xqc pop=npa geom=check

CID_148578993_JID_617_Energie_anion

-1 2
