%chk=JID_7567.chk
%mem=8GB
%nprocshared=4
# opt freq B3LYP/6-31G(d) empiricaldispersion=gd3bj scf=xqc

CID_61181681_JID_7567_neutraal

0 1
C          0.93010       -0.06890        0.01917
C          0.70848        1.41829       -0.20668
C          0.87311        1.84025       -1.66820
C         -0.05451        1.13709       -2.66753
C         -1.54420        1.40857       -2.45212
N         -1.88017        2.79716       -2.70459
C         -2.60456        3.47045       -3.61698
O         -2.89051        4.62448       -3.28430
N         -2.98725        2.93779       -4.81784
C         -2.46316        1.70593       -5.42092
C         -3.34999        0.47200       -5.29476
O         -3.05872       -0.64205       -5.70380
O         -4.53469        0.67291       -4.68796
C         -3.90635        3.71100       -5.68781
C         -5.24691        4.02273       -5.00851
C         -3.27523        4.99585       -6.26622
C         -1.99891        4.74143       -7.05681
H          0.14122       -0.66761       -0.44542
H          0.92218       -0.29040        1.09135
H          1.89533       -0.38971       -0.38508
H         -0.28079        1.70303        0.16715
H          1.43670        1.97479        0.39591
H          0.73347        2.92577       -1.73836
H          1.91008        1.64773       -1.97160
H          0.23867        1.46317       -3.67218
H          0.11945        0.05602       -2.63475
H         -2.15525        0.74703       -3.06170
H         -1.82844        1.19985       -1.41572
H         -1.71307        3.41503       -1.91908
H         -2.31209        1.88563       -6.49132
H         -1.48237        1.47711       -5.01063
H         -4.96943       -0.20433       -4.69102
H         -4.15902        3.06494       -6.53984
H         -5.14973        4.76252       -4.20891
H         -5.95737        4.42586       -5.73866
H         -5.68838        3.11960       -4.57602
H         -4.00129        5.47714       -6.93343
H         -3.05944        5.72140       -5.47492
H         -2.17570        4.03220       -7.87137
H         -1.63645        5.67621       -7.49636
H         -1.20401        4.34602       -6.41702

--Link1--
%chk=JID_7567.chk
%mem=8GB
%nprocshared=4
# B3LYP/6-311++G(d,p) empiricaldispersion=gd3bj scf=xqc pop=npa geom=check

CID_61181681_JID_7567_Energie_neutraal

0 1

--Link1--
%chk=JID_7567.chk
%mem=8GB
%nprocshared=4
# B3LYP/6-311++G(d,p) empiricaldispersion=gd3bj scf=xqc pop=npa geom=check

CID_61181681_JID_7567_Energie_kation

1 2

--Link1--
%chk=JID_7567.chk
%mem=8GB
%nprocshared=4
# B3LYP/6-311++G(d,p) empiricaldispersion=gd3bj scf=xqc pop=npa geom=check

CID_61181681_JID_7567_Energie_anion

-1 2
