%chk=JID_8137.chk
%mem=8GB
%nprocshared=4
# opt freq B3LYP/6-31G(d) empiricaldispersion=gd3bj scf=xqc

CID_128316879_JID_8137_neutraal

0 1
C          1.13300        1.27300        0.29400
C          0.31822        1.11935        1.57608
S          0.42586       -0.56210        2.25512
C         -0.05914       -1.49647        0.77947
C          0.80977       -1.12964       -0.41613
C          0.68043        0.33923       -0.84718
C         -0.70483        0.76605       -1.37433
O         -1.15454        1.88277       -1.12460
N         -1.33185       -0.16205       -2.17644
C         -2.59006       -0.03763       -2.80296
C         -3.15969       -1.20867       -3.33925
C         -4.39945       -1.14414       -3.95245
C         -5.14726        0.01470       -4.10426
C         -4.56939        1.17596       -3.57798
C         -3.31986        1.15376       -2.93605
O         -4.72909       -2.40600       -4.35593
C         -3.66598       -3.16100       -3.95668
N         -2.69609       -2.50788       -3.35163
H          2.19386        1.08881        0.51067
H          1.07467        2.31854       -0.03401
H          0.69731        1.81131        2.33495
H         -0.73608        1.36468        1.41683
H         -1.11983       -1.32344        0.57272
H          0.05823       -2.56195        1.00237
H          0.57344       -1.80269       -1.24689
H          1.86265       -1.33833       -0.17952
H          1.36637        0.49886       -1.69093
H         -0.93630       -1.09068       -2.27071
H         -6.11263        0.01597       -4.59424
H         -5.10075        2.12277       -3.66566
H         -2.92784        2.09472       -2.55819
H         -3.72247       -4.21899       -4.17248

--Link1--
%chk=JID_8137.chk
%mem=8GB
%nprocshared=4
# B3LYP/6-311++G(d,p) empiricaldispersion=gd3bj scf=xqc pop=npa geom=check

CID_128316879_JID_8137_Energie_neutraal

0 1

--Link1--
%chk=JID_8137.chk
%mem=8GB
%nprocshared=4
# B3LYP/6-311++G(d,p) empiricaldispersion=gd3bj scf=xqc pop=npa geom=check

CID_128316879_JID_8137_Energie_kation

1 2

--Link1--
%chk=JID_8137.chk
%mem=8GB
%nprocshared=4
# B3LYP/6-311++G(d,p) empiricaldispersion=gd3bj scf=xqc pop=npa geom=check

CID_128316879_JID_8137_Energie_anion

-1 2
