%chk=JID_7561.chk
%mem=8GB
%nprocshared=4
# opt freq B3LYP/6-31G(d) empiricaldispersion=gd3bj scf=xqc

CID_79757810_JID_7561_neutraal

0 1
C          0.93312       -0.07279        0.01511
C          0.29386       -0.71086       -1.20593
C          0.63342       -2.18291       -1.37768
C         -0.54911       -2.67655       -2.17611
C         -1.68873       -1.89281       -1.55653
O         -1.14161       -0.65379       -1.07961
C          2.01140       -2.52928       -1.92193
O          2.56314       -3.58467       -1.60015
N          2.70191       -1.64469       -2.70847
C          2.21803       -1.12868       -3.93343
C          1.56386       -1.97196       -4.83989
C          1.13455       -1.48243       -6.07224
C          1.37359       -0.15470       -6.41046
C          2.05856        0.67897       -5.52464
C          2.51577        0.20131       -4.28436
C          3.23063        1.11983       -3.32150
O          3.75555        2.27055       -3.97516
H          0.62148       -0.58146        0.93387
H          0.60956        0.96918        0.11161
H          2.02494       -0.09461       -0.04751
H          0.54199       -0.11642       -2.08821
H          0.58311       -2.65794       -0.38568
H         -0.69904       -3.75824       -2.11286
H         -0.46823       -2.41575       -3.23293
H         -2.11184       -2.42209       -0.69626
H         -2.49279       -1.68905       -2.26942
H          3.63545       -2.02935       -2.84536
H          1.39962       -3.02184       -4.60847
H          0.62223       -2.13838       -6.77136
H          1.03862        0.23383       -7.36906
H          2.24268        1.71300       -5.81266
H          2.53014        1.45395       -2.54916
H          4.07397        0.60339       -2.85226
H          4.17663        2.81250       -3.28720

--Link1--
%chk=JID_7561.chk
%mem=8GB
%nprocshared=4
# B3LYP/6-311++G(d,p) empiricaldispersion=gd3bj scf=xqc pop=npa geom=check

CID_79757810_JID_7561_Energie_neutraal

0 1

--Link1--
%chk=JID_7561.chk
%mem=8GB
%nprocshared=4
# B3LYP/6-311++G(d,p) empiricaldispersion=gd3bj scf=xqc pop=npa geom=check

CID_79757810_JID_7561_Energie_kation

1 2

--Link1--
%chk=JID_7561.chk
%mem=8GB
%nprocshared=4
# B3LYP/6-311++G(d,p) empiricaldispersion=gd3bj scf=xqc pop=npa geom=check

CID_79757810_JID_7561_Energie_anion

-1 2
