%chk=JID_6077.chk
%mem=8GB
%nprocshared=4
# opt freq B3LYP/6-31G(d) empiricaldispersion=gd3bj scf=xqc

CID_79097151_JID_6077_neutraal

0 1
C          0.93921        0.07063       -0.03626
C          0.12132       -1.14141        0.38760
C          0.67550       -1.85127        1.62688
N          0.57992       -1.00089        2.81302
C          1.04689       -1.67022        4.03953
C          2.55711       -1.75049        3.99415
C          3.46799       -0.70477        3.99059
N          4.73179       -1.22899        3.93599
C          4.65977       -2.59454        3.89077
C          3.33003       -2.94800        3.93499
C          5.96183       -0.45157        3.91823
C          6.44831       -0.11855        5.32498
O          6.98787       -1.26610        5.97670
C          0.52732       -0.90512        5.29157
C         -1.00393       -0.78618        5.28938
C          0.96239       -1.59332        6.59346
H          0.89002        0.87094        0.70803
H          0.55333        0.47181       -0.97898
H          1.98956       -0.19781       -0.18752
H         -0.91822       -0.83750        0.56054
H          0.10521       -1.85763       -0.44287
H          0.09018       -2.76513        1.78365
H          1.71135       -2.14948        1.43000
H          1.12788       -0.15358        2.68028
H          0.63097       -2.68659        4.07730
H          3.30697        0.36517        4.02481
H          5.55196       -3.20509        3.83003
H          2.94837       -3.96112        3.91415
H          6.70877       -1.03551        3.36909
H          5.75355        0.46521        3.35575
H          7.25172        0.62228        5.26642
H          5.65112        0.29551        5.95132
H          6.24928       -1.88472        6.12793
H          0.93980        0.11304        5.29950
H         -1.47722       -1.77312        5.24700
H         -1.35545       -0.28205        6.19627
H         -1.36013       -0.19974        4.43655
H          2.05153       -1.60388        6.69910
H          0.55952       -1.06501        7.46454
H          0.60558       -2.62821        6.63228

--Link1--
%chk=JID_6077.chk
%mem=8GB
%nprocshared=4
# B3LYP/6-311++G(d,p) empiricaldispersion=gd3bj scf=xqc pop=npa geom=check

CID_79097151_JID_6077_Energie_neutraal

0 1

--Link1--
%chk=JID_6077.chk
%mem=8GB
%nprocshared=4
# B3LYP/6-311++G(d,p) empiricaldispersion=gd3bj scf=xqc pop=npa geom=check

CID_79097151_JID_6077_Energie_kation

1 2

--Link1--
%chk=JID_6077.chk
%mem=8GB
%nprocshared=4
# B3LYP/6-311++G(d,p) empiricaldispersion=gd3bj scf=xqc pop=npa geom=check

CID_79097151_JID_6077_Energie_anion

-1 2
