%chk=JID_6393.chk
%mem=8GB
%nprocshared=4
# opt freq B3LYP/6-31G(d) empiricaldispersion=gd3bj scf=xqc

CID_83056408_JID_6393_neutraal

0 1
C          1.01283       -0.06422       -0.07557
C          0.46441        1.01333       -0.99214
C          0.92745        0.94859       -2.45519
C          0.64332       -0.33693       -3.26406
C         -0.85808       -0.67925       -3.12897
C         -1.26358       -1.89470       -3.94409
C         -0.39590       -3.07216       -3.54441
C          1.07040       -2.73411       -3.75613
N          1.49787       -1.55424       -2.90735
S          3.21100       -1.31882       -3.00986
O          3.54408       -1.26767       -4.41946
O          3.61960       -0.24187       -2.13151
C          3.92144       -2.80844       -2.32745
C          3.50003       -3.03103       -0.90293
S          2.57725       -4.33839       -0.42630
N          4.00079       -2.18431        0.04395
H          0.70910       -1.06526       -0.39052
H          0.63416        0.08612        0.94105
H          2.10265       -0.01840       -0.02618
H         -0.63063        0.99911       -0.94647
H          0.76088        1.98999       -0.58852
H          0.39726        1.76361       -2.97036
H          1.97396        1.24765       -2.52299
H          0.84561       -0.11015       -4.32092
H         -1.46495        0.17860       -3.44313
H         -1.11042       -0.88476       -2.08195
H         -2.31902       -2.12928       -3.76724
H         -1.15231       -1.68499       -5.01461
H         -0.57447       -3.33058       -2.49335
H         -0.66473       -3.94792       -4.14545
H          1.64585       -3.62199       -3.49022
H          1.25378       -2.51559       -4.81515
H          3.69608       -3.65227       -2.98183
H          5.00752       -2.65802       -2.35183
H          4.33264       -1.25506       -0.21442
H          3.67749       -2.28621        1.00041

--Link1--
%chk=JID_6393.chk
%mem=8GB
%nprocshared=4
# B3LYP/6-311++G(d,p) empiricaldispersion=gd3bj scf=xqc pop=npa geom=check

CID_83056408_JID_6393_Energie_neutraal

0 1

--Link1--
%chk=JID_6393.chk
%mem=8GB
%nprocshared=4
# B3LYP/6-311++G(d,p) empiricaldispersion=gd3bj scf=xqc pop=npa geom=check

CID_83056408_JID_6393_Energie_kation

1 2

--Link1--
%chk=JID_6393.chk
%mem=8GB
%nprocshared=4
# B3LYP/6-311++G(d,p) empiricaldispersion=gd3bj scf=xqc pop=npa geom=check

CID_83056408_JID_6393_Energie_anion

-1 2
