%chk=JID_9692.chk
%mem=8GB
%nprocshared=4
# opt freq B3LYP/6-31G(d) empiricaldispersion=gd3bj scf=xqc

CID_54359717_JID_9692_neutraal

0 1
C          1.02917        0.06389        0.07118
C          0.66246       -0.36747        1.44103
C          0.78791       -1.63355        1.97760
O          0.35379       -1.66485        3.26330
C         -0.06176       -0.40409        3.56834
C          0.10171        0.44124        2.48019
C         -0.27747        1.79267        2.62561
C         -0.82925        2.23839        3.85012
C         -1.35597        3.59780        4.02938
C         -1.59506        4.04295        5.27435
C         -1.34442        3.11538        6.44373
O         -1.48192        1.72501        6.13299
C         -0.94601        1.34112        4.92757
C         -0.57461       -0.00158        4.79886
O         -0.70467       -0.88136        5.84375
C         -2.12526        5.42724        5.62464
C         -1.04331        6.25633        6.32479
C         -2.69051        6.22646        4.44357
O         -0.08380        2.63983        1.56164
H          0.15357        0.45722       -0.45497
H          1.42754       -0.77083       -0.51476
H          1.79427        0.84592        0.10708
H          1.15299       -2.57425        1.58821
H         -1.55495        4.20032        3.15301
H         -0.34597        3.28898        6.86291
H         -2.07145        3.31550        7.23839
H         -0.40143       -1.74466        5.50753
H         -2.95780        5.29137        6.32807
H         -0.17567        6.41009        5.67318
H         -1.43091        7.24124        6.60752
H         -0.69439        5.76854        7.24119
H         -3.47584        5.66455        3.92625
H         -3.13626        7.16406        4.79429
H         -1.91215        6.48398        3.71682
H         -0.03519        3.54911        1.89746

--Link1--
%chk=JID_9692.chk
%mem=8GB
%nprocshared=4
# B3LYP/6-311++G(d,p) empiricaldispersion=gd3bj scf=xqc pop=npa geom=check

CID_54359717_JID_9692_Energie_neutraal

0 1

--Link1--
%chk=JID_9692.chk
%mem=8GB
%nprocshared=4
# B3LYP/6-311++G(d,p) empiricaldispersion=gd3bj scf=xqc pop=npa geom=check

CID_54359717_JID_9692_Energie_kation

1 2

--Link1--
%chk=JID_9692.chk
%mem=8GB
%nprocshared=4
# B3LYP/6-311++G(d,p) empiricaldispersion=gd3bj scf=xqc pop=npa geom=check

CID_54359717_JID_9692_Energie_anion

-1 2
