%chk=JID_8782.chk
%mem=8GB
%nprocshared=4
# opt freq B3LYP/6-31G(d) empiricaldispersion=gd3bj scf=xqc

CID_116507033_JID_8782_neutraal

0 1
C          0.97947       -0.07582        0.06189
C          0.70116       -0.48415        1.51163
C          1.66169        0.25623        2.44033
N         -0.71004       -0.20612        1.77451
C         -1.24975       -0.73746        3.02645
C         -1.17926        0.18076        4.26324
C         -1.69807        1.57290        4.02819
C         -2.81121        2.07150        4.58632
C         -3.24573        3.44009        4.30761
C         -3.22114        4.40006        5.31693
C         -3.60844        5.71769        5.04423
C         -4.03862        6.12710        3.76600
C         -4.06743        5.12718        2.77407
C         -3.67794        3.80835        3.03342
C         -4.45794        7.63045        3.48005
C         -3.86697        8.35757        2.23736
C         -5.20935        9.10743        2.12477
C         -5.85595        7.91724        2.86173
H          0.82791        0.99884       -0.09202
H          0.32294       -0.61398       -0.63141
H          2.01270       -0.31218       -0.21540
H          0.88510       -1.56252        1.59086
H          1.43287        1.32654        2.48788
H          1.62860       -0.15238        3.45365
H          2.69539        0.15307        2.09164
H         -0.91353        0.78675        1.68238
H         -2.31037       -0.94856        2.83878
H         -0.79758       -1.70811        3.26416
H         -1.74288       -0.29824        5.07423
H         -0.14961        0.25877        4.62430
H         -1.09636        2.20775        3.38020
H         -3.42637        1.49160        5.26768
H         -2.88643        4.13920        6.31785
H         -3.56782        6.44882        5.85006
H         -4.39832        5.38052        1.76852
H         -3.71516        3.07475        2.23143
H         -4.30912        8.24677        4.38219
H         -2.99278        8.98585        2.42865
H         -3.65486        7.71266        1.37705
H         -5.56865        9.29052        1.10922
H         -5.23888       10.04583        2.69024
H         -6.23303        7.13866        2.18880
H         -6.64301        8.17827        3.57437

--Link1--
%chk=JID_8782.chk
%mem=8GB
%nprocshared=4
# B3LYP/6-311++G(d,p) empiricaldispersion=gd3bj scf=xqc pop=npa geom=check

CID_116507033_JID_8782_Energie_neutraal

0 1

--Link1--
%chk=JID_8782.chk
%mem=8GB
%nprocshared=4
# B3LYP/6-311++G(d,p) empiricaldispersion=gd3bj scf=xqc pop=npa geom=check

CID_116507033_JID_8782_Energie_kation

1 2

--Link1--
%chk=JID_8782.chk
%mem=8GB
%nprocshared=4
# B3LYP/6-311++G(d,p) empiricaldispersion=gd3bj scf=xqc pop=npa geom=check

CID_116507033_JID_8782_Energie_anion

-1 2
