%chk=JID_7503.chk
%mem=8GB
%nprocshared=4
# opt freq B3LYP/6-31G(d) empiricaldispersion=gd3bj scf=xqc

CID_79179936_JID_7503_neutraal

0 1
C          0.98796       -0.01516       -0.09811
C          0.71759       -1.03659        0.97320
C          0.22605       -0.64102        2.16483
C          1.02646       -2.51144        0.68833
C          0.25538       -3.15733       -0.58988
C          0.93095       -2.67482       -1.92121
C          1.16340       -3.92296       -2.76446
C          1.48706       -4.98752       -1.73676
C          0.50354       -4.70708       -0.60782
N         -1.21899       -2.84074       -0.55686
C         -1.98306       -3.19393       -1.76660
C         -3.40292       -2.61966       -1.72585
C         -4.15368       -3.07121       -0.48320
C         -3.33007       -2.76952        0.75847
C         -1.91580       -3.34416        0.64318
N          2.50222       -2.66859        0.67435
C          3.00986       -3.26429        1.90266
H          0.87416        1.00860        0.27578
H          0.28858       -0.13195       -0.92999
H          2.01148       -0.10481       -0.47424
H          0.03259       -1.34926        2.96277
H          0.01089        0.40216        2.37131
H          0.66156       -3.09161        1.54681
H          0.35332       -1.92197       -2.46578
H          1.90155       -2.20116       -1.74233
H          1.97610       -3.78605       -3.48399
H          0.26112       -4.19368       -3.32263
H          2.52006       -4.88755       -1.38772
H          1.37172       -5.99840       -2.13917
H          0.86774       -5.09450        0.34935
H         -0.41359       -5.26558       -0.82422
H         -2.04042       -4.28083       -1.89747
H         -1.52446       -2.78596       -2.67025
H         -3.95234       -2.93148       -2.62149
H         -3.35431       -1.52336       -1.74724
H         -5.12470       -2.56766       -0.42429
H         -4.35054       -4.14854       -0.54230
H         -3.27333       -1.68369        0.90830
H         -3.82756       -3.18728        1.64120
H         -1.39988       -3.06259        1.56307
H         -1.97140       -4.43955        0.63430
H          2.79451       -3.23885       -0.11149
H          2.64555       -4.29005        2.02464
H          4.10274       -3.30458        1.86163
H          2.73359       -2.67767        2.78397

--Link1--
%chk=JID_7503.chk
%mem=8GB
%nprocshared=4
# B3LYP/6-311++G(d,p) empiricaldispersion=gd3bj scf=xqc pop=npa geom=check

CID_79179936_JID_7503_Energie_neutraal

0 1

--Link1--
%chk=JID_7503.chk
%mem=8GB
%nprocshared=4
# B3LYP/6-311++G(d,p) empiricaldispersion=gd3bj scf=xqc pop=npa geom=check

CID_79179936_JID_7503_Energie_kation

1 2

--Link1--
%chk=JID_7503.chk
%mem=8GB
%nprocshared=4
# B3LYP/6-311++G(d,p) empiricaldispersion=gd3bj scf=xqc pop=npa geom=check

CID_79179936_JID_7503_Energie_anion

-1 2
