%chk=JID_9018.chk
%mem=8GB
%nprocshared=4
# opt freq B3LYP/6-31G(d) empiricaldispersion=gd3bj scf=xqc

CID_43404371_JID_9018_neutraal

0 1
C          2.44000        0.23600       -0.01000
C          0.94310        0.21037        0.01213
C          0.20300        1.38152       -0.12450
N         -1.15290        1.41839       -0.06712
C         -1.76103        0.22522        0.14991
C         -1.02551       -0.94877        0.26928
N          0.33262       -0.98200        0.20680
C         -3.24375        0.14679        0.29532
O         -3.77832       -0.96245        0.36820
N         -4.06409        1.24462        0.37443
C         -3.78826        2.68670        0.40093
C         -4.10532        3.33403       -0.95966
C         -5.49089        3.02553       -1.57702
C         -6.66433        3.50134       -0.72096
C         -5.58758        3.66853       -2.96540
C         -4.48491        3.42126        1.56141
O         -4.42724        4.63342        1.73852
O         -5.15384        2.55450        2.37604
C         -5.78120        3.17490        3.49854
H          2.81988        0.74477        0.88116
H          2.84583       -0.78057       -0.02585
H          2.79932        0.75768       -0.90251
H          0.68774        2.34092       -0.27690
H         -1.50490       -1.90880        0.43429
H         -5.02766        0.98202        0.54856
H         -2.73263        2.84170        0.62323
H         -3.98090        4.42221       -0.88418
H         -3.34318        2.98995       -1.67244
H         -5.58765        1.94169       -1.71546
H         -6.56166        4.55847       -0.45453
H         -7.61221        3.38173       -1.25755
H         -6.74969        2.91643        0.19820
H         -4.78618        3.30886       -3.61910
H         -6.54136        3.42020       -3.44380
H         -5.51433        4.75972       -2.90413
H         -5.03658        3.67345        4.12717
H         -6.54624        3.88311        3.16575
H         -6.26531        2.39341        4.09047

--Link1--
%chk=JID_9018.chk
%mem=8GB
%nprocshared=4
# B3LYP/6-311++G(d,p) empiricaldispersion=gd3bj scf=xqc pop=npa geom=check

CID_43404371_JID_9018_Energie_neutraal

0 1

--Link1--
%chk=JID_9018.chk
%mem=8GB
%nprocshared=4
# B3LYP/6-311++G(d,p) empiricaldispersion=gd3bj scf=xqc pop=npa geom=check

CID_43404371_JID_9018_Energie_kation

1 2

--Link1--
%chk=JID_9018.chk
%mem=8GB
%nprocshared=4
# B3LYP/6-311++G(d,p) empiricaldispersion=gd3bj scf=xqc pop=npa geom=check

CID_43404371_JID_9018_Energie_anion

-1 2
