%chk=JID_10552.chk
%mem=8GB
%nprocshared=4
# opt freq B3LYP/6-31G(d) empiricaldispersion=gd3bj scf=xqc

CID_63955772_JID_10552_neutraal

0 1
C          1.08925       -0.03874        0.02308
C          0.90003        1.45615        0.25395
N          1.77875        2.27748       -0.57252
C          1.27417        3.62193       -0.84189
C          1.10489        4.51672        0.35024
C          1.97228        5.73847        0.54555
C          0.53876        5.90246        0.13967
C          3.23028        2.18108       -0.33823
C          3.88556        2.70503        0.98970
C          3.53842        1.87677        2.21947
C          2.88085        2.47769        3.30296
C          2.52781        1.73159        4.43088
C          2.83039        0.36553        4.51035
C          3.51163       -0.22970        3.44097
C          3.86573        0.51633        2.31341
C          2.43309       -0.47284        5.71184
C          3.11534        0.01613        6.99120
C          0.91261       -0.51745        5.88565
N          5.35409        2.78455        0.78885
C          6.01930        3.58363        1.80892
H          0.93775       -0.29261       -1.03163
H          0.35483       -0.60129        0.60918
H          2.08084       -0.38833        0.31688
H         -0.14490        1.67288       -0.00459
H          0.99570        1.68638        1.31726
H          1.90884        4.10655       -1.59518
H          0.29555        3.52513       -1.33066
H          0.74069        3.99536        1.22684
H          2.24784        6.00697        1.55903
H          2.73903        5.95344       -0.19059
H          0.33391        6.23387       -0.87229
H         -0.15899        6.28180        0.87778
H          3.53767        1.14040       -0.50222
H          3.70850        2.71971       -1.16979
H          3.53614        3.72879        1.13778
H          2.62328        3.53424        3.26916
H          2.00573        2.22927        5.24469
H          3.76734       -1.28679        3.47102
H          4.38444        0.01651        1.49896
H          2.76718       -1.50529        5.54293
H          2.79332        1.02605        7.26727
H          2.88110       -0.64845        7.82987
H          4.20433        0.03378        6.87141
H          0.42440       -0.87600        4.97244
H          0.63809       -1.19575        6.70074
H          0.49760        0.46883        6.12029
H          5.74313        1.84396        0.78596
H          5.94322        3.13441        2.80369
H          7.08343        3.66244        1.56479
H          5.61753        4.60152        1.84190

--Link1--
%chk=JID_10552.chk
%mem=8GB
%nprocshared=4
# B3LYP/6-311++G(d,p) empiricaldispersion=gd3bj scf=xqc pop=npa geom=check

CID_63955772_JID_10552_Energie_neutraal

0 1

--Link1--
%chk=JID_10552.chk
%mem=8GB
%nprocshared=4
# B3LYP/6-311++G(d,p) empiricaldispersion=gd3bj scf=xqc pop=npa geom=check

CID_63955772_JID_10552_Energie_kation

1 2

--Link1--
%chk=JID_10552.chk
%mem=8GB
%nprocshared=4
# B3LYP/6-311++G(d,p) empiricaldispersion=gd3bj scf=xqc pop=npa geom=check

CID_63955772_JID_10552_Energie_anion

-1 2
