%chk=JID_4173.chk
%mem=8GB
%nprocshared=4
# opt freq B3LYP/6-31G(d) empiricaldispersion=gd3bj scf=xqc

CID_116456442_JID_4173_neutraal

0 1
C         -0.02900        0.88300        0.00000
C         -0.94285       -0.21409       -0.46275
C          0.46810       -0.55727       -0.00479
C          1.46554       -0.96781       -1.08026
N          2.73616       -0.26966       -0.91815
C          3.73475       -0.92088       -0.18343
N          3.58607       -2.17946        0.27261
N          4.59440       -2.80731        0.97608
C          5.76515       -2.18494        1.18214
C          5.96646       -0.90027        0.71857
C          4.93997       -0.26431        0.02167
N          6.76159       -2.84423        1.90452
C          0.63929       -1.31012        1.30162
O         -0.43157       -1.05275        2.20712
H         -0.25791        1.36568        0.94228
H          0.34007        1.56976       -0.75458
H         -1.78021       -0.48537        0.17225
H         -1.18094       -0.26644       -1.51968
H          1.57009       -2.05847       -1.13150
H          1.07490       -0.67421       -2.06262
H          2.61537        0.68397       -0.59485
H          6.90516       -0.38818        0.89633
H          5.09193        0.73874       -0.36216
H          7.63755       -2.86511        1.39466
H          6.42484       -3.78256        2.10923
H          0.65403       -2.38850        1.11527
H          1.57256       -1.02994        1.79883
H         -0.29132       -0.15829        2.55649

--Link1--
%chk=JID_4173.chk
%mem=8GB
%nprocshared=4
# B3LYP/6-311++G(d,p) empiricaldispersion=gd3bj scf=xqc pop=npa geom=check

CID_116456442_JID_4173_Energie_neutraal

0 1

--Link1--
%chk=JID_4173.chk
%mem=8GB
%nprocshared=4
# B3LYP/6-311++G(d,p) empiricaldispersion=gd3bj scf=xqc pop=npa geom=check

CID_116456442_JID_4173_Energie_kation

1 2

--Link1--
%chk=JID_4173.chk
%mem=8GB
%nprocshared=4
# B3LYP/6-311++G(d,p) empiricaldispersion=gd3bj scf=xqc pop=npa geom=check

CID_116456442_JID_4173_Energie_anion

-1 2
