%chk=JID_7775.chk
%mem=8GB
%nprocshared=4
# opt freq B3LYP/6-31G(d) empiricaldispersion=gd3bj scf=xqc

CID_64233109_JID_7775_neutraal

0 1
C          1.09400       -1.21800       -0.04600
C          0.85615        0.25146        0.19193
C         -0.55719        0.76171        0.05724
C          0.08323        0.71199        1.41825
N         -0.36997       -0.21314        2.40974
C         -1.07332        0.07910        3.55864
O         -1.13370       -0.73494        4.47644
C         -1.73579        1.39541        3.70085
C         -1.56192        2.10270        4.89395
C         -2.18421        3.34027        5.06754
C         -2.99796        3.87410        4.05823
C         -3.18999        3.14353        2.87663
C         -2.56646        1.90603        2.69992
C         -3.68610        5.20573        4.25697
C         -5.14936        5.07991        4.70433
N         -5.27997        4.56233        6.06650
C          1.97636        1.13622       -0.29243
H          0.22190       -1.82865        0.21064
H          1.32285       -1.40030       -1.10135
H          1.94095       -1.56638        0.55407
H         -0.71904        1.73808       -0.38638
H         -1.34686        0.05211       -0.16452
H          0.40507        1.66019        1.84747
H          0.09293       -1.11352        2.46713
H         -0.94312        1.69061        5.68803
H         -2.04005        3.88311        6.00014
H         -3.83295        3.53143        2.08947
H         -2.74729        1.33922        1.79145
H         -3.12218        5.81474        4.97548
H         -3.64894        5.75959        3.30985
H         -5.61400        6.07141        4.67147
H         -5.70793        4.43417        4.01731
H         -6.26791        4.44298        6.28725
H         -4.87129        3.62713        6.10699
H          2.13508        0.99753       -1.36692
H          1.76592        2.19737       -0.12008
H          2.90684        0.88923        0.22911

--Link1--
%chk=JID_7775.chk
%mem=8GB
%nprocshared=4
# B3LYP/6-311++G(d,p) empiricaldispersion=gd3bj scf=xqc pop=npa geom=check

CID_64233109_JID_7775_Energie_neutraal

0 1

--Link1--
%chk=JID_7775.chk
%mem=8GB
%nprocshared=4
# B3LYP/6-311++G(d,p) empiricaldispersion=gd3bj scf=xqc pop=npa geom=check

CID_64233109_JID_7775_Energie_kation

1 2

--Link1--
%chk=JID_7775.chk
%mem=8GB
%nprocshared=4
# B3LYP/6-311++G(d,p) empiricaldispersion=gd3bj scf=xqc pop=npa geom=check

CID_64233109_JID_7775_Energie_anion

-1 2
