%chk=JID_9454.chk
%mem=8GB
%nprocshared=4
# opt freq B3LYP/6-31G(d) empiricaldispersion=gd3bj scf=xqc

CID_116425982_JID_9454_neutraal

0 1
C          0.96934        0.06344       -0.07096
C          0.80921        0.12388       -1.59303
C          2.00877        0.81489       -2.25972
C          3.24489       -0.07629       -2.29766
C          2.93318       -1.41271       -2.96576
N          1.78836       -2.09448       -2.34788
C          0.56586       -1.28177       -2.20331
C          2.07736       -2.98740       -1.31482
C          1.33339       -4.12770       -1.06626
C          1.70103       -4.95160       -0.02597
N          2.75365       -4.68210        0.76954
C          3.43705       -3.57496        0.46072
N          3.15649       -2.72773       -0.54356
O          0.97562       -6.10353        0.20140
C          1.45450       -6.88496        1.29221
N          0.27690       -4.53330       -1.93278
O         -0.88067       -4.27385       -1.57247
O          0.59052       -5.12507       -2.97550
O         -0.35034        0.94253       -1.82663
H          0.09191       -0.40314        0.39169
H          1.03489        1.07365        0.35017
H          1.85623       -0.48954        0.24395
H          1.74254        1.10069       -3.28642
H          2.23946        1.75759       -1.74804
H          3.62648       -0.22889       -1.28278
H          4.04093        0.43036       -2.85556
H          3.82481       -2.05242       -2.98048
H          2.68387       -1.23131       -4.01930
H         -0.21730       -1.79143       -1.63130
H          0.13802       -1.15798       -3.20751
H          4.29872       -3.33745        1.07588
H          1.38983       -6.33082        2.23488
H          0.81102       -7.76582        1.37850
H          2.47627       -7.23531        1.10982
H         -0.46304        1.05121       -2.78685

--Link1--
%chk=JID_9454.chk
%mem=8GB
%nprocshared=4
# B3LYP/6-311++G(d,p) empiricaldispersion=gd3bj scf=xqc pop=npa geom=check

CID_116425982_JID_9454_Energie_neutraal

0 1

--Link1--
%chk=JID_9454.chk
%mem=8GB
%nprocshared=4
# B3LYP/6-311++G(d,p) empiricaldispersion=gd3bj scf=xqc pop=npa geom=check

CID_116425982_JID_9454_Energie_kation

1 2

--Link1--
%chk=JID_9454.chk
%mem=8GB
%nprocshared=4
# B3LYP/6-311++G(d,p) empiricaldispersion=gd3bj scf=xqc pop=npa geom=check

CID_116425982_JID_9454_Energie_anion

-1 2
