%chk=JID_3625.chk
%mem=8GB
%nprocshared=4
# opt freq B3LYP/6-31G(d) empiricaldispersion=gd3bj scf=xqc

CID_104872289_JID_3625_neutraal

0 1
C          1.09400       -1.21800       -0.04600
C          0.14550       -0.45291        0.84300
C         -1.24792       -0.19513        0.32268
C         -1.04979       -1.16635        1.46648
C         -1.25880       -2.62914        1.29168
O         -0.39467       -3.41886        1.64116
N         -2.48224       -2.95380        0.75565
C         -2.80984       -4.28508        0.21466
C         -2.56887       -5.40435        1.24505
C         -4.31437       -4.29454       -0.12727
C         -1.96040       -4.56305       -1.06380
N         -2.13237       -3.54548       -2.11508
C          0.81058        0.62407        1.65970
H          1.82157       -1.76856        0.55921
H          0.57540       -1.93518       -0.69095
H          1.64213       -0.52862       -0.69694
H         -1.71837        0.75625        0.54499
H         -1.50210       -0.58313       -0.65874
H         -1.34651       -0.82901        2.45544
H         -2.95754       -2.18286        0.30639
H         -2.96405       -6.36127        0.88466
H         -1.50535       -5.56024        1.44865
H         -3.05877       -5.17490        2.19818
H         -4.58292       -3.48483       -0.81484
H         -4.61199       -5.24226       -0.58956
H         -4.92045       -4.15511        0.77595
H         -0.89634       -4.59295       -0.80175
H         -2.21340       -5.54519       -1.48070
H         -1.44788       -3.72321       -2.85050
H         -3.04511       -3.66363       -2.55245
H          1.30325        1.35023        1.00482
H          0.09316        1.16885        2.28296
H          1.56603        0.18714        2.32092

--Link1--
%chk=JID_3625.chk
%mem=8GB
%nprocshared=4
# B3LYP/6-311++G(d,p) empiricaldispersion=gd3bj scf=xqc pop=npa geom=check

CID_104872289_JID_3625_Energie_neutraal

0 1

--Link1--
%chk=JID_3625.chk
%mem=8GB
%nprocshared=4
# B3LYP/6-311++G(d,p) empiricaldispersion=gd3bj scf=xqc pop=npa geom=check

CID_104872289_JID_3625_Energie_kation

1 2

--Link1--
%chk=JID_3625.chk
%mem=8GB
%nprocshared=4
# B3LYP/6-311++G(d,p) empiricaldispersion=gd3bj scf=xqc pop=npa geom=check

CID_104872289_JID_3625_Energie_anion

-1 2
