%chk=JID_5301.chk
%mem=8GB
%nprocshared=4
# opt freq B3LYP/6-31G(d) empiricaldispersion=gd3bj scf=xqc

CID_134989836_JID_5301_neutraal

0 1
C          1.06138       -0.00603        0.07871
C          0.44473       -0.96018        1.10259
C          0.88302       -0.59925        2.52101
C         -1.06583       -0.98360        1.01171
N         -1.71973        0.18128        0.98423
C         -3.05211        0.09641        0.93672
N         -3.74460       -1.05216        0.91869
C         -2.99487       -2.16378        0.95663
N         -1.65983       -2.18027        1.00896
C         -3.72877       -3.49615        0.94612
C         -3.91686       -4.01800        2.36307
O         -5.02611       -3.38563        0.33929
C         -3.85157        1.38983        0.89990
C         -3.95766        1.91637       -0.52370
O         -5.18377        1.20817        1.40555
H          0.77250        1.03425        0.26620
H          0.74179       -0.26295       -0.93735
H          2.15487       -0.05984        0.11116
H          0.81496       -1.96925        0.87903
H          0.54866        0.40541        2.80352
H          0.46840       -1.30405        3.25057
H          1.97429       -0.62895        2.60896
H         -3.15525       -4.21702        0.35384
H         -4.52713       -3.32899        2.95882
H         -4.44715       -4.97642        2.35027
H         -2.95830       -4.15585        2.87361
H         -5.17597       -2.43121        0.19701
H         -3.36176        2.13217        1.53899
H         -4.48569        1.20418       -1.16869
H         -4.53477        2.84718       -0.54493
H         -2.97126        2.10680       -0.95875
H         -5.29353        0.24641        1.53446

--Link1--
%chk=JID_5301.chk
%mem=8GB
%nprocshared=4
# B3LYP/6-311++G(d,p) empiricaldispersion=gd3bj scf=xqc pop=npa geom=check

CID_134989836_JID_5301_Energie_neutraal

0 1

--Link1--
%chk=JID_5301.chk
%mem=8GB
%nprocshared=4
# B3LYP/6-311++G(d,p) empiricaldispersion=gd3bj scf=xqc pop=npa geom=check

CID_134989836_JID_5301_Energie_kation

1 2

--Link1--
%chk=JID_5301.chk
%mem=8GB
%nprocshared=4
# B3LYP/6-311++G(d,p) empiricaldispersion=gd3bj scf=xqc pop=npa geom=check

CID_134989836_JID_5301_Energie_anion

-1 2
