%chk=JID_3298.chk
%mem=8GB
%nprocshared=4
# opt freq B3LYP/6-31G(d) empiricaldispersion=gd3bj scf=xqc

CID_64570927_JID_3298_neutraal

0 1
C          1.06082        0.02286        0.07601
C          0.51297        1.22010        0.86196
C          0.83642        2.49152        0.06045
C         -1.01324        1.14624        1.19871
C         -1.60265       -0.27048        1.11254
C         -1.33395        1.69368        2.61724
N         -0.97472        3.09454        2.79227
C         -1.44809        3.70563        4.03500
C         -1.03755        3.06890        5.35731
S          0.60595        3.46892        5.90923
O          0.85432        4.87705        5.67065
O          0.74522        2.91821        7.24568
C          1.68948        2.53323        4.85692
H          0.54529       -0.09808       -0.88254
H          0.96650       -0.90654        0.64598
H          2.12758        0.15668       -0.13679
H          1.07986        1.26298        1.80093
H          0.35249        2.46812       -0.92242
H          0.50794        3.40042        0.56899
H          1.91635        2.58151       -0.10096
H         -1.56414        1.75657        0.46963
H         -1.10411       -0.95453        1.80728
H         -2.66947       -0.26202        1.36327
H         -1.52202       -0.67628        0.09943
H         -2.41004        1.57920        2.79869
H         -0.81030        1.07433        3.35456
H          0.01487        3.26149        2.63767
H         -1.16036        4.76274        4.01949
H         -2.54500        3.70723        3.99346
H         -1.69674        3.45727        6.14384
H         -1.14717        1.98134        5.36912
H          1.35393        1.49520        4.83338
H          1.69827        2.96922        3.85911
H          2.69510        2.58514        5.28086

--Link1--
%chk=JID_3298.chk
%mem=8GB
%nprocshared=4
# B3LYP/6-311++G(d,p) empiricaldispersion=gd3bj scf=xqc pop=npa geom=check

CID_64570927_JID_3298_Energie_neutraal

0 1

--Link1--
%chk=JID_3298.chk
%mem=8GB
%nprocshared=4
# B3LYP/6-311++G(d,p) empiricaldispersion=gd3bj scf=xqc pop=npa geom=check

CID_64570927_JID_3298_Energie_kation

1 2

--Link1--
%chk=JID_3298.chk
%mem=8GB
%nprocshared=4
# B3LYP/6-311++G(d,p) empiricaldispersion=gd3bj scf=xqc pop=npa geom=check

CID_64570927_JID_3298_Energie_anion

-1 2
