%chk=JID_10305.chk
%mem=8GB
%nprocshared=4
# opt freq B3LYP/6-31G(d) empiricaldispersion=gd3bj scf=xqc

CID_62957380_JID_10305_neutraal

0 1
C          1.05301       -0.00651       -0.08454
C          0.07362        0.03203       -1.24372
C          0.01068       -1.26785       -2.04623
N         -0.14844       -2.50102       -1.30031
C          0.73224       -3.55173       -1.38195
C          0.19638       -4.54080       -0.59940
N         -0.97708       -4.12430       -0.03898
C         -1.18250       -2.89192       -0.47270
C         -2.33247       -2.02609       -0.04779
N         -3.27481       -1.75327       -1.13696
C         -4.05032       -0.51716       -0.92404
C         -4.80024       -0.21898       -2.22897
C         -5.02180       -0.63595        0.27502
C         -5.71641        0.66442        0.63452
C         -7.03973        0.85433        0.19577
C         -7.72653        2.03545        0.47082
C         -7.10152        3.04722        1.18923
C         -5.79277        2.87423        1.63854
C         -5.08847        1.68543        1.38020
C         -3.67891        1.56307        1.89269
H          0.74557       -0.72577        0.68037
H          1.11091        0.97784        0.39112
H          2.05709       -0.27495       -0.42807
H         -0.91617        0.30477       -0.86958
H          0.36464        0.84071       -1.92552
H         -0.80518       -1.22402       -2.77555
H          0.93669       -1.35984       -2.62846
H          1.63347       -3.51515       -1.97816
H          0.59236       -5.53002       -0.40933
H         -2.86774       -2.54945        0.75343
H         -1.93410       -1.10878        0.39672
H         -2.78314       -1.70912       -2.02401
H         -3.35306        0.31320       -0.76483
H         -4.10779       -0.16836       -3.07758
H         -5.54778       -0.98926       -2.44814
H         -5.30927        0.74878       -2.18131
H         -4.50179       -0.99337        1.17078
H         -5.77314       -1.40921        0.06360
H         -7.54420        0.07559       -0.37345
H         -8.74749        2.16417        0.12199
H         -7.63249        3.97070        1.40364
H         -5.32387        3.67859        2.20188
H         -2.96430        1.66451        1.07111
H         -3.45426        2.34412        2.62762
H         -3.52498        0.60529        2.39802

--Link1--
%chk=JID_10305.chk
%mem=8GB
%nprocshared=4
# B3LYP/6-311++G(d,p) empiricaldispersion=gd3bj scf=xqc pop=npa geom=check

CID_62957380_JID_10305_Energie_neutraal

0 1

--Link1--
%chk=JID_10305.chk
%mem=8GB
%nprocshared=4
# B3LYP/6-311++G(d,p) empiricaldispersion=gd3bj scf=xqc pop=npa geom=check

CID_62957380_JID_10305_Energie_kation

1 2

--Link1--
%chk=JID_10305.chk
%mem=8GB
%nprocshared=4
# B3LYP/6-311++G(d,p) empiricaldispersion=gd3bj scf=xqc pop=npa geom=check

CID_62957380_JID_10305_Energie_anion

-1 2
