%chk=JID_1354.chk
%mem=8GB
%nprocshared=4
# opt freq B3LYP/6-31G(d) empiricaldispersion=gd3bj scf=xqc

CID_129996304_JID_1354_neutraal

0 1
C          1.05975       -0.03827        0.07047
C         -0.21947       -0.07375       -0.76885
C         -0.37824       -1.59062       -1.00739
C          1.09665       -2.06644       -1.19718
C          1.89826       -0.75049       -0.99850
C          1.58958        0.15344       -2.17242
C          0.31472        0.55060       -2.03829
N          1.47624       -3.09111       -0.23383
C          1.05853       -4.37490       -0.17889
O          1.30291       -5.08692        0.78639
N          0.33358       -4.82690       -1.22112
H          0.97744       -0.59649        1.00952
H          1.40866        0.97867        0.29178
H         -1.07928        0.43524       -0.33232
H         -0.98422       -1.80638       -1.89451
H         -0.84996       -2.06822       -0.14089
H          1.24635       -2.47273       -2.20459
H          2.95804       -0.85233       -0.76025
H          2.25799        0.38440       -2.98813
H         -0.24678        1.16852       -2.72318
H          1.93248       -2.80407        0.62374
H          0.57750       -4.49697       -2.14148
H          0.13071       -5.81670       -1.16652

--Link1--
%chk=JID_1354.chk
%mem=8GB
%nprocshared=4
# B3LYP/6-311++G(d,p) empiricaldispersion=gd3bj scf=xqc pop=npa geom=check

CID_129996304_JID_1354_Energie_neutraal

0 1

--Link1--
%chk=JID_1354.chk
%mem=8GB
%nprocshared=4
# B3LYP/6-311++G(d,p) empiricaldispersion=gd3bj scf=xqc pop=npa geom=check

CID_129996304_JID_1354_Energie_kation

1 2

--Link1--
%chk=JID_1354.chk
%mem=8GB
%nprocshared=4
# B3LYP/6-311++G(d,p) empiricaldispersion=gd3bj scf=xqc pop=npa geom=check

CID_129996304_JID_1354_Energie_anion

-1 2
