%chk=JID_8602.chk
%mem=8GB
%nprocshared=4
# opt freq B3LYP/6-31G(d) empiricaldispersion=gd3bj scf=xqc

CID_63972950_JID_8602_neutraal

0 1
C          0.97475        0.09676       -0.00018
O          0.46029       -0.33747       -1.25453
C          1.36305       -0.07473       -2.32576
C          0.71585        0.82720       -3.39264
C          1.78055        1.36638       -4.36383
C          2.44398        2.67671       -3.89310
N          2.22549        2.92175       -2.46377
C          0.79097        3.07903       -2.16768
C         -0.08403        2.00501       -2.82709
C          3.10463        4.00294       -1.90323
C          2.64941        5.42907       -2.27325
C          3.76573        6.40865       -2.64517
C          5.01429        6.45337       -1.77424
C          4.80547        6.92297       -0.33900
C          3.95358        6.03529        0.56347
C          4.24316        4.54344        0.44268
C          3.20926        3.75069       -0.35869
O          3.54782        2.36210       -0.17001
H          0.26863       -0.20505        0.77827
H          1.06798        1.18233        0.02838
H          1.93962       -0.37624        0.20743
H          2.31549        0.32317       -1.96466
H          1.60270       -1.04137       -2.78562
H          0.01360        0.19559       -3.95330
H          2.54556        0.60033       -4.54121
H          1.30719        1.55722       -5.33575
H          3.51658        2.59692       -4.10847
H          2.06660        3.51259       -4.49474
H          0.41135        4.05451       -2.49218
H          0.62381        3.03730       -1.08788
H         -0.63345        2.46940       -3.65736
H         -0.84779        1.65907       -2.12082
H          4.10465        3.81457       -2.31374
H          2.01525        5.84772       -1.48520
H          2.00270        5.40119       -3.15941
H          3.33370        7.41552       -2.70644
H          4.09261        6.16400       -3.66486
H          5.71234        7.15846       -2.24545
H          5.53316        5.49011       -1.79793
H          4.38102        7.93441       -0.34023
H          5.79774        7.01527        0.12229
H          2.88894        6.24474        0.42226
H          4.16173        6.34113        1.59786
H          4.24336        4.12506        1.46009
H          5.25729        4.34413        0.07733
H          2.23057        3.89707        0.11240
H          3.13790        1.92217       -0.93972

--Link1--
%chk=JID_8602.chk
%mem=8GB
%nprocshared=4
# B3LYP/6-311++G(d,p) empiricaldispersion=gd3bj scf=xqc pop=npa geom=check

CID_63972950_JID_8602_Energie_neutraal

0 1

--Link1--
%chk=JID_8602.chk
%mem=8GB
%nprocshared=4
# B3LYP/6-311++G(d,p) empiricaldispersion=gd3bj scf=xqc pop=npa geom=check

CID_63972950_JID_8602_Energie_kation

1 2

--Link1--
%chk=JID_8602.chk
%mem=8GB
%nprocshared=4
# B3LYP/6-311++G(d,p) empiricaldispersion=gd3bj scf=xqc pop=npa geom=check

CID_63972950_JID_8602_Energie_anion

-1 2
