%chk=JID_8491.chk
%mem=8GB
%nprocshared=4
# opt freq B3LYP/6-31G(d) empiricaldispersion=gd3bj scf=xqc

CID_66348516_JID_8491_neutraal

0 1
C          1.04629        0.03287        0.08232
C          0.74866       -0.56460        1.46086
C          1.73913       -0.00384        2.48500
C         -0.69499       -0.27616        1.91790
N         -1.67650       -1.00705        1.11563
C         -3.05517       -0.64834        1.45395
C         -3.56883        0.50596        0.62492
C         -3.43193        1.83152        1.06881
C         -3.85892        2.92290        0.29254
C         -4.44033        2.65467       -0.94636
C         -4.58883        1.34080       -1.40277
C         -4.14951        0.27263       -0.62568
S         -3.55445        4.53479        1.00350
C         -4.39685        5.78636       -0.02538
C         -3.77797        6.05622       -1.39497
C         -4.90249        6.76982       -2.13366
C         -6.15880        6.03185       -1.69064
C         -5.90528        5.62259       -0.23801
H          0.86644        1.11332        0.07089
H          0.42721       -0.42312       -0.69604
H          2.09232       -0.13715       -0.19510
H          0.90016       -1.65071        1.40941
H          1.63630        1.08200        2.58525
H          1.57532       -0.45299        3.47034
H          2.77076       -0.22162        2.18864
H         -0.80572       -0.58144        2.96566
H         -0.87019        0.80425        1.86939
H         -1.52737       -0.83303        0.12337
H         -3.68925       -1.52229        1.25913
H         -3.17563       -0.44057        2.52479
H         -2.97153        2.01289        2.03934
H         -4.78975        3.44469       -1.59608
H         -5.04245        1.15367       -2.37313
H         -4.25981       -0.74302       -0.99993
H         -4.26994        6.71173        0.55372
H         -2.88346        6.68426       -1.32689
H         -3.49931        5.14380       -1.92878
H         -4.76820        6.74588       -3.21891
H         -4.95325        7.81917       -1.81945
H         -6.30303        5.13830       -2.30874
H         -7.05593        6.65005       -1.79248
H         -6.28272        4.61340       -0.05046
H         -6.44874        6.29225        0.43969

--Link1--
%chk=JID_8491.chk
%mem=8GB
%nprocshared=4
# B3LYP/6-311++G(d,p) empiricaldispersion=gd3bj scf=xqc pop=npa geom=check

CID_66348516_JID_8491_Energie_neutraal

0 1

--Link1--
%chk=JID_8491.chk
%mem=8GB
%nprocshared=4
# B3LYP/6-311++G(d,p) empiricaldispersion=gd3bj scf=xqc pop=npa geom=check

CID_66348516_JID_8491_Energie_kation

1 2

--Link1--
%chk=JID_8491.chk
%mem=8GB
%nprocshared=4
# B3LYP/6-311++G(d,p) empiricaldispersion=gd3bj scf=xqc pop=npa geom=check

CID_66348516_JID_8491_Energie_anion

-1 2
