%chk=JID_8366.chk
%mem=8GB
%nprocshared=4
# opt freq B3LYP/6-31G(d) empiricaldispersion=gd3bj scf=xqc

CID_119189280_JID_8366_neutraal

0 1
C          1.00305        0.06348       -0.07721
C          0.47304       -0.77487       -1.22748
C          0.08694        0.03517       -2.46876
C         -0.97369        1.10382       -2.20333
O         -0.33090        2.37560       -2.12698
C         -1.11492        3.43053       -1.56945
C         -2.51140        3.53557       -2.18550
C         -1.17173        3.38528       -0.02281
O         -2.23315        3.15954        0.56653
N          0.00941        3.60003        0.68678
C          1.30669        3.94639        0.09074
C          1.51405        5.44611       -0.15681
O          2.89442        5.73292       -0.39887
C          3.59448        6.06578        0.79461
C         -0.08261        3.59168        2.15291
C         -0.58900        4.87606        2.80009
O         -0.66936        5.07003        4.00468
O         -0.96459        5.84570        1.94235
H          1.83279        0.69910       -0.40134
H          1.36726       -0.58688        0.72459
H          0.22110        0.69856        0.34634
H          1.23940       -1.50458       -1.51541
H         -0.39396       -1.35008       -0.88175
H          0.98763        0.48480       -2.90447
H         -0.30807       -0.67481       -3.20568
H         -1.66332        1.12770       -3.05422
H         -1.54523        0.88716       -1.29464
H         -0.60248        4.35991       -1.83620
H         -3.14270        2.68216       -1.91533
H         -3.02190        4.44015       -1.83826
H         -2.45054        3.56410       -3.27822
H          2.09663        3.54779        0.73766
H          1.43562        3.41649       -0.85674
H          0.96110        5.75216       -1.04999
H          1.14688        6.06045        0.66920
H          3.20531        7.00057        1.21034
H          3.51255        5.26477        1.53505
H          4.64961        6.20905        0.54793
H         -0.76529        2.78984        2.45578
H          0.90683        3.36971        2.56586
H         -1.32345        6.54787        2.52415

--Link1--
%chk=JID_8366.chk
%mem=8GB
%nprocshared=4
# B3LYP/6-311++G(d,p) empiricaldispersion=gd3bj scf=xqc pop=npa geom=check

CID_119189280_JID_8366_Energie_neutraal

0 1

--Link1--
%chk=JID_8366.chk
%mem=8GB
%nprocshared=4
# B3LYP/6-311++G(d,p) empiricaldispersion=gd3bj scf=xqc pop=npa geom=check

CID_119189280_JID_8366_Energie_kation

1 2

--Link1--
%chk=JID_8366.chk
%mem=8GB
%nprocshared=4
# B3LYP/6-311++G(d,p) empiricaldispersion=gd3bj scf=xqc pop=npa geom=check

CID_119189280_JID_8366_Energie_anion

-1 2
