%chk=JID_336.chk
%mem=8GB
%nprocshared=4
# opt freq B3LYP/6-31G(d) empiricaldispersion=gd3bj scf=xqc

CID_54074443_JID_336_neutraal

0 1
C          1.09155        0.03537       -0.01915
C          0.06208       -0.17048       -1.12127
C          0.40414       -1.32463       -2.06579
C          0.49614       -2.70726       -1.41985
O         -0.78629       -3.25323       -1.12140
C         -1.27195       -2.97566        0.18942
C         -1.25301       -4.24018        1.04807
C          0.14358       -4.79622        1.31271
C          0.99265       -3.91325        2.19569
O          0.60893       -2.87342        2.72036
H          1.13122       -0.80864        0.67315
H          0.84075        0.92765        0.56365
H          2.09134        0.17975       -0.44106
H         -0.93127       -0.31216       -0.68380
H          0.00524        0.75084       -1.71428
H         -0.35533       -1.35099       -2.85683
H          1.36403       -1.10194       -2.54800
H          0.94129       -3.38560       -2.15674
H          1.15812       -2.72397       -0.54906
H         -0.73371       -2.15769        0.67122
H         -2.31202       -2.65029        0.07689
H         -1.75635       -4.03160        1.99949
H         -1.83094       -5.01887        0.53557
H          0.05803       -5.76144        1.82402
H          0.68579       -4.96759        0.37794
H          2.02146       -4.27562        2.36421

--Link1--
%chk=JID_336.chk
%mem=8GB
%nprocshared=4
# B3LYP/6-311++G(d,p) empiricaldispersion=gd3bj scf=xqc pop=npa geom=check

CID_54074443_JID_336_Energie_neutraal

0 1

--Link1--
%chk=JID_336.chk
%mem=8GB
%nprocshared=4
# B3LYP/6-311++G(d,p) empiricaldispersion=gd3bj scf=xqc pop=npa geom=check

CID_54074443_JID_336_Energie_kation

1 2

--Link1--
%chk=JID_336.chk
%mem=8GB
%nprocshared=4
# B3LYP/6-311++G(d,p) empiricaldispersion=gd3bj scf=xqc pop=npa geom=check

CID_54074443_JID_336_Energie_anion

-1 2
