%chk=JID_10773.chk
%mem=8GB
%nprocshared=4
# opt freq B3LYP/6-31G(d) empiricaldispersion=gd3bj scf=xqc

CID_69669954_JID_10773_neutraal

0 1
C          1.07498        0.05654       -0.03436
C          0.98393       -0.50993        1.37388
C          1.29201        0.51951        2.46305
C          0.40511        1.76799        2.45397
C         -1.09696        1.50527        2.60262
C         -1.51700        0.81662        3.90575
C         -1.09640        1.53242        5.19407
C         -1.52749        2.99872        5.30140
C         -3.04167        3.24081        5.26871
C         -3.81388        2.65771        6.45951
C         -3.39752        3.23840        7.79028
C         -3.61197        4.59680        8.07317
C         -3.18803        5.16278        9.28748
C         -2.55103        4.34567       10.23957
C         -2.35229        2.98198        9.96532
C         -2.77208        2.43562        8.75069
C         -2.13882        4.95024       11.43005
N         -2.30813        6.26046       11.72610
C         -2.92161        7.01264       10.78995
C         -3.37396        6.52016        9.57587
H          0.28846        0.79253       -0.22461
H          0.95843       -0.74655       -0.76931
H          2.04566        0.53261       -0.20525
H         -0.00906       -0.94548        1.52971
H          1.70075       -1.33488        1.46640
H          1.22722        0.02775        3.44065
H          2.33585        0.84124        2.35649
H          0.74377        2.43829        3.25234
H          0.56947        2.32272        1.52246
H         -1.62525        2.46187        2.51263
H         -1.45003        0.89988        1.75960
H         -2.60713        0.69719        3.89848
H         -1.11045       -0.20171        3.92598
H         -1.48730        0.96887        6.04909
H         -0.00475        1.48695        5.28876
H         -1.10676        3.41723        6.22339
H         -1.06930        3.57433        4.48901
H         -3.21030        4.32392        5.21972
H         -3.46297        2.83327        4.34269
H         -4.88470        2.85671        6.32275
H         -3.71662        1.56577        6.47121
H         -4.10487        5.22329        7.33191
H         -1.86221        2.33951       10.69324
H         -2.59595        1.37985        8.55622
H         -1.63970        4.37679       12.20671
H         -3.04494        8.06091       11.04691
H         -3.85726        7.18748        8.87058

--Link1--
%chk=JID_10773.chk
%mem=8GB
%nprocshared=4
# B3LYP/6-311++G(d,p) empiricaldispersion=gd3bj scf=xqc pop=npa geom=check

CID_69669954_JID_10773_Energie_neutraal

0 1

--Link1--
%chk=JID_10773.chk
%mem=8GB
%nprocshared=4
# B3LYP/6-311++G(d,p) empiricaldispersion=gd3bj scf=xqc pop=npa geom=check

CID_69669954_JID_10773_Energie_kation

1 2

--Link1--
%chk=JID_10773.chk
%mem=8GB
%nprocshared=4
# B3LYP/6-311++G(d,p) empiricaldispersion=gd3bj scf=xqc pop=npa geom=check

CID_69669954_JID_10773_Energie_anion

-1 2
