%chk=JID_6515.chk
%mem=8GB
%nprocshared=4
# opt freq B3LYP/6-31G(d) empiricaldispersion=gd3bj scf=xqc

CID_144698463_JID_6515_neutraal

0 1
C          1.05318       -0.05194        0.06689
C          0.71695        1.03237        1.04022
C         -0.12723        2.06715        0.85764
C         -0.36949        3.11334        1.93490
C         -1.56877        2.82504        2.88279
C         -1.31699        1.57164        3.70333
C         -0.98162        1.46672        4.99789
N         -1.81371        4.03377        3.68520
C         -3.12650        4.04205        4.31275
C         -0.80893        2.29622       -0.43277
C         -2.12005        1.82342       -0.59450
C         -2.79873        2.00332       -1.80019
C         -2.17000        2.64676       -2.86147
C         -0.86304        3.11252       -2.71844
C         -0.17066        2.95245       -1.50669
C          1.24856        3.44339       -1.40844
H          0.49802        0.01287       -0.87210
H          0.83427       -1.02641        0.51492
H          2.12155       -0.01789       -0.16799
H          1.22049        0.94228        2.00193
H          0.54652        3.23306        2.53203
H         -0.51963        4.08750        1.44713
H         -2.45614        2.64583        2.26307
H         -1.42119        0.64360        3.14085
H         -0.82796        0.49003        5.44750
H         -0.84455        2.32912        5.63987
H         -1.07903        4.14234        4.37947
H         -3.25320        3.23029        5.03482
H         -3.26279        4.98542        4.85075
H         -3.92338        3.97796        3.56457
H         -2.61972        1.30288        0.21848
H         -3.81512        1.63571       -1.91158
H         -2.69412        2.78233       -3.80386
H         -0.38385        3.60321       -3.56294
H          1.94314        2.59800       -1.43785
H          1.49677        4.11091       -2.24077
H          1.40464        4.01341       -0.48739

--Link1--
%chk=JID_6515.chk
%mem=8GB
%nprocshared=4
# B3LYP/6-311++G(d,p) empiricaldispersion=gd3bj scf=xqc pop=npa geom=check

CID_144698463_JID_6515_Energie_neutraal

0 1

--Link1--
%chk=JID_6515.chk
%mem=8GB
%nprocshared=4
# B3LYP/6-311++G(d,p) empiricaldispersion=gd3bj scf=xqc pop=npa geom=check

CID_144698463_JID_6515_Energie_kation

1 2

--Link1--
%chk=JID_6515.chk
%mem=8GB
%nprocshared=4
# B3LYP/6-311++G(d,p) empiricaldispersion=gd3bj scf=xqc pop=npa geom=check

CID_144698463_JID_6515_Energie_anion

-1 2
