%chk=JID_8911.chk
%mem=8GB
%nprocshared=4
# opt freq B3LYP/6-31G(d) empiricaldispersion=gd3bj scf=xqc

CID_63671934_JID_8911_neutraal

0 1
C          1.07049        0.06463        0.02924
C          0.63321       -0.89674        1.12327
C          0.59950       -0.24473        2.50360
O         -0.47227        0.69447        2.58998
C         -0.19502        2.02780        2.41983
C         -1.20665        2.78344        1.80546
C         -1.03163        4.15891        1.66944
C          0.15590        4.77509        2.08312
C          1.18624        4.04094        2.68138
C          0.98173        2.65579        2.84118
N          2.37137        4.61478        3.15892
C          2.56231        4.46852        4.62706
C          4.02019        4.57264        5.04437
N          5.22962        4.65902        5.39057
C          2.93202        5.82663        2.50537
C          4.03236        5.47693        1.51676
N          4.94519        5.18682        0.69662
N         -2.45867        2.20978        1.51701
H          2.03041        0.53086        0.27258
H          0.33056        0.85294       -0.13350
H          1.18729       -0.47424       -0.91668
H         -0.35983       -1.28664        0.87160
H          1.32728       -1.74447        1.14722
H          0.38292       -1.02205        3.24549
H          1.58231        0.15515        2.76369
H         -1.83038        4.76979        1.25683
H          0.20861        5.85288        1.97173
H          1.76361        2.07588        3.31816
H          1.99561        5.25655        5.13856
H          2.19176        3.50850        5.00369
H          2.18048        6.42315        1.98216
H          3.36090        6.49783        3.25944
H         -2.38432        1.19524        1.45533
H         -2.92753        2.62374        0.71948

--Link1--
%chk=JID_8911.chk
%mem=8GB
%nprocshared=4
# B3LYP/6-311++G(d,p) empiricaldispersion=gd3bj scf=xqc pop=npa geom=check

CID_63671934_JID_8911_Energie_neutraal

0 1

--Link1--
%chk=JID_8911.chk
%mem=8GB
%nprocshared=4
# B3LYP/6-311++G(d,p) empiricaldispersion=gd3bj scf=xqc pop=npa geom=check

CID_63671934_JID_8911_Energie_kation

1 2

--Link1--
%chk=JID_8911.chk
%mem=8GB
%nprocshared=4
# B3LYP/6-311++G(d,p) empiricaldispersion=gd3bj scf=xqc pop=npa geom=check

CID_63671934_JID_8911_Energie_anion

-1 2
