%chk=JID_3758.chk
%mem=8GB
%nprocshared=4
# opt freq B3LYP/6-31G(d) empiricaldispersion=gd3bj scf=xqc

CID_89525539_JID_3758_neutraal

0 1
C          0.97909       -0.05821       -0.07858
C          0.46903       -1.48340       -0.29955
C          0.69717       -2.40815        0.91830
C          0.26429       -1.91977        2.31330
C         -1.25263       -1.86738        2.61429
C         -1.87771       -3.17389        3.12092
C         -2.70635       -3.26722        4.17852
C         -1.60400       -4.41635        2.31269
C         -1.51604       -0.67806        3.55908
O         -2.35578        0.18399        3.28563
C         -0.70871       -0.57987        4.83398
C         -0.96109       -1.46054       -0.77801
C         -1.43167       -2.23874       -1.76161
H          0.37807        0.48188        0.66102
H          0.94327        0.51533       -1.01192
H          2.01870       -0.06674        0.26571
H          1.07989       -1.90322       -1.11232
H          0.26945       -3.39217        0.70560
H          1.78179       -2.57854        0.98011
H          0.74140       -2.57495        3.05557
H          0.71870       -0.93493        2.47375
H         -1.78982       -1.61478        1.69700
H         -3.14682       -4.21775        4.46997
H         -3.00854       -2.41367        4.77699
H         -1.84212       -4.24502        1.25815
H         -0.55515       -4.71301        2.40546
H         -2.20974       -5.26778        2.64254
H         -0.50137       -1.57292        5.23927
H          0.23077       -0.05887        4.63669
H         -1.28110       -0.02280        5.58126
H         -1.64233       -0.74973       -0.31268
H         -2.46954       -2.17006       -2.07379
H         -0.80084       -2.95861       -2.27355

--Link1--
%chk=JID_3758.chk
%mem=8GB
%nprocshared=4
# B3LYP/6-311++G(d,p) empiricaldispersion=gd3bj scf=xqc pop=npa geom=check

CID_89525539_JID_3758_Energie_neutraal

0 1

--Link1--
%chk=JID_3758.chk
%mem=8GB
%nprocshared=4
# B3LYP/6-311++G(d,p) empiricaldispersion=gd3bj scf=xqc pop=npa geom=check

CID_89525539_JID_3758_Energie_kation

1 2

--Link1--
%chk=JID_3758.chk
%mem=8GB
%nprocshared=4
# B3LYP/6-311++G(d,p) empiricaldispersion=gd3bj scf=xqc pop=npa geom=check

CID_89525539_JID_3758_Energie_anion

-1 2
