%chk=JID_1537.chk
%mem=8GB
%nprocshared=4
# opt freq B3LYP/6-31G(d) empiricaldispersion=gd3bj scf=xqc

CID_22398216_JID_1537_neutraal

0 1
C          0.93708        0.07708       -0.01003
S         -0.08516        0.70504        2.31825
O          0.15479        2.07895        2.80273
O         -1.46804        0.28134        2.60704
N          0.65859       -0.06979        3.69368
C         -0.97159        0.22091        0.34831
C         -0.09937        1.71114        0.37888
N          1.54927        1.41551        1.13569
N          1.61471       -0.36382        1.67531
C          0.12607       -1.10846        1.22799
N          2.65264        2.26392        1.08066
H          0.95703        0.81512       -0.88418
H          0.53214       -0.80790       -0.61770
H          2.05774       -0.16552       -0.10835
H          1.49132       -0.53465        3.30634
H          0.94002        0.68866        4.31571
H         -1.97791        0.01513       -0.00539
H         -0.21919        2.73819        0.05489
H         -0.10107       -2.14755        1.45250
H          2.48484        3.07870        0.49750
H          3.47220        1.78899        0.71197

--Link1--
%chk=JID_1537.chk
%mem=8GB
%nprocshared=4
# B3LYP/6-311++G(d,p) empiricaldispersion=gd3bj scf=xqc pop=npa geom=check

CID_22398216_JID_1537_Energie_neutraal

0 1

--Link1--
%chk=JID_1537.chk
%mem=8GB
%nprocshared=4
# B3LYP/6-311++G(d,p) empiricaldispersion=gd3bj scf=xqc pop=npa geom=check

CID_22398216_JID_1537_Energie_kation

1 2

--Link1--
%chk=JID_1537.chk
%mem=8GB
%nprocshared=4
# B3LYP/6-311++G(d,p) empiricaldispersion=gd3bj scf=xqc pop=npa geom=check

CID_22398216_JID_1537_Energie_anion

-1 2
