%chk=JID_8108.chk
%mem=8GB
%nprocshared=4
# opt freq B3LYP/6-31G(d) empiricaldispersion=gd3bj scf=xqc

CID_61444280_JID_8108_neutraal

0 1
C          2.49600       -0.00700       -0.12600
C          1.09285       -0.27148        0.41920
C          0.33928        1.03969        0.65464
C         -1.06414        0.77557        1.18701
C         -1.87543       -0.13029        0.25969
C         -1.13046       -1.43890       -0.08609
C          0.31507       -1.17300       -0.54742
N         -1.87678       -2.39720       -0.92487
C         -3.18087       -2.74824       -0.36306
C         -1.91765       -2.29585       -2.40405
C         -2.54925       -1.01257       -3.04486
N         -1.71473        0.17064       -3.28521
C         -0.62535       -2.79703       -3.00336
C          0.22211       -2.22198       -3.93211
N          1.26680       -3.08025       -4.10041
N          1.14034       -4.21978       -3.40071
C         -0.00185       -4.04468       -2.73169
C          2.44087       -2.86796       -4.90994
H          2.45908        0.51401       -1.08882
H          3.07171        0.61119        0.57084
H          3.04096       -0.94602       -0.26945
H          1.19636       -0.79405        1.37938
H          0.88658        1.66278        1.37191
H          0.27376        1.61146       -0.27984
H         -1.59164        1.72714        1.32030
H         -0.99575        0.31080        2.17845
H         -2.12912        0.43294       -0.63944
H         -2.82526       -0.35060        0.76065
H         -1.00793       -1.95738        0.87760
H          0.32647       -0.69846       -1.53129
H          0.85186       -2.12553       -0.63512
H         -3.92674       -1.96211       -0.51754
H         -3.56281       -3.67213       -0.81211
H         -3.10728       -2.94746        0.71221
H         -2.61847       -3.08629       -2.72213
H         -2.95355       -1.30051       -4.02406
H         -3.41767       -0.70804       -2.44936
H         -2.31254        0.96941       -3.48873
H         -1.18934        0.40053       -2.44723
H          0.18170       -1.27440       -4.45093
H         -0.33997       -4.82067       -2.05661
H          3.32020       -2.92577       -4.26310
H          2.47617       -3.64353       -5.67851
H          2.38866       -1.88066       -5.37570

--Link1--
%chk=JID_8108.chk
%mem=8GB
%nprocshared=4
# B3LYP/6-311++G(d,p) empiricaldispersion=gd3bj scf=xqc pop=npa geom=check

CID_61444280_JID_8108_Energie_neutraal

0 1

--Link1--
%chk=JID_8108.chk
%mem=8GB
%nprocshared=4
# B3LYP/6-311++G(d,p) empiricaldispersion=gd3bj scf=xqc pop=npa geom=check

CID_61444280_JID_8108_Energie_kation

1 2

--Link1--
%chk=JID_8108.chk
%mem=8GB
%nprocshared=4
# B3LYP/6-311++G(d,p) empiricaldispersion=gd3bj scf=xqc pop=npa geom=check

CID_61444280_JID_8108_Energie_anion

-1 2
