%chk=JID_9910.chk
%mem=8GB
%nprocshared=4
# opt freq B3LYP/6-31G(d) empiricaldispersion=gd3bj scf=xqc

CID_65344148_JID_9910_neutraal

0 1
C          1.07876        0.05041       -0.03545
O          0.89483        1.46619        0.05796
C          1.19432        1.89913        1.32292
C          2.48967        2.27986        1.68263
C          2.73823        2.70168        2.99594
C          1.70367        2.75158        3.94526
C          0.40023        2.42340        3.54252
C          0.14494        2.00554        2.23658
C          1.99070        3.12593        5.38605
N          2.40150        2.02411        6.27450
C          1.38546        0.97398        6.39895
C          1.77381       -0.03593        7.47846
C          3.15506       -0.62537        7.20139
C          4.18142        0.49059        7.01934
C          3.72284        1.48007        5.94859
C          3.56689       -1.51764        8.34519
O          3.76627       -2.72182        8.21581
C          3.57288        2.23037        0.74566
N          4.47474        2.17843        0.01636
H          0.59826       -0.28780       -0.95840
H          0.61355       -0.48234        0.80195
H          2.14338       -0.19647       -0.09671
H          3.75012        2.97939        3.28906
H         -0.42360        2.47793        4.25187
H         -0.86758        1.74940        1.93513
H          2.75566        3.91393        5.40386
H          1.10042        3.60868        5.81141
H          1.24497        0.43991        5.45115
H          0.42058        1.41502        6.67653
H          1.02591       -0.83738        7.51915
H          1.75768        0.45150        8.46251
H          3.11572       -1.23635        6.29037
H          4.34097        1.02079        7.96792
H          5.15222        0.06515        6.73699
H          4.46043        2.28977        5.89493
H          3.71816        0.97174        4.97709
H          3.67504       -1.03000        9.32953

--Link1--
%chk=JID_9910.chk
%mem=8GB
%nprocshared=4
# B3LYP/6-311++G(d,p) empiricaldispersion=gd3bj scf=xqc pop=npa geom=check

CID_65344148_JID_9910_Energie_neutraal

0 1

--Link1--
%chk=JID_9910.chk
%mem=8GB
%nprocshared=4
# B3LYP/6-311++G(d,p) empiricaldispersion=gd3bj scf=xqc pop=npa geom=check

CID_65344148_JID_9910_Energie_kation

1 2

--Link1--
%chk=JID_9910.chk
%mem=8GB
%nprocshared=4
# B3LYP/6-311++G(d,p) empiricaldispersion=gd3bj scf=xqc pop=npa geom=check

CID_65344148_JID_9910_Energie_anion

-1 2
