%chk=JID_8919.chk
%mem=8GB
%nprocshared=4
# opt freq B3LYP/6-31G(d) empiricaldispersion=gd3bj scf=xqc

CID_81482561_JID_8919_neutraal

0 1
C          1.05099       -0.06077        0.06088
C          0.61629       -0.00481        1.53196
C          1.41204        1.09090        2.25755
C         -0.90375        0.31697        1.64306
N         -1.76060       -0.80680        1.28033
C         -2.83877       -1.31556        1.95303
O         -3.55356       -2.17849        1.45252
C         -3.17042       -0.80151        3.29182
C         -2.37322       -1.05245        4.41257
C         -2.71115       -0.47600        5.63920
C         -3.86817        0.29943        5.77042
C         -4.68806        0.50438        4.65866
C         -4.34061       -0.04537        3.42034
O         -4.08344        0.79216        7.02803
C         -5.24814        1.58553        7.21977
O         -1.21838       -1.78955        4.38306
C         -1.48945       -3.17485        4.14452
N          0.93367       -1.30942        2.13553
H          0.84364        0.88841       -0.44637
H          0.52659       -0.85100       -0.48815
H          2.12655       -0.25369       -0.03151
H          1.19808        2.07761        1.83104
H          1.15949        1.12750        3.32376
H          2.49264        0.92405        2.17786
H         -1.14361        0.65482        2.65465
H         -1.16698        1.13822        0.96598
H         -1.59048       -1.25683        0.38980
H         -2.07497       -0.64175        6.50519
H         -5.60020        1.08916        4.71855
H         -4.97753        0.12076        2.55415
H         -5.21578        2.48940        6.60246
H         -6.15667        1.00585        7.02613
H         -5.27013        1.89904        8.26792
H         -2.43307       -3.50263        4.59626
H         -1.48535       -3.38513        3.07155
H         -0.67975       -3.75300        4.60012
H          1.92769       -1.37563        2.34538
H          0.43981       -1.39668        3.02829

--Link1--
%chk=JID_8919.chk
%mem=8GB
%nprocshared=4
# B3LYP/6-311++G(d,p) empiricaldispersion=gd3bj scf=xqc pop=npa geom=check

CID_81482561_JID_8919_Energie_neutraal

0 1

--Link1--
%chk=JID_8919.chk
%mem=8GB
%nprocshared=4
# B3LYP/6-311++G(d,p) empiricaldispersion=gd3bj scf=xqc pop=npa geom=check

CID_81482561_JID_8919_Energie_kation

1 2

--Link1--
%chk=JID_8919.chk
%mem=8GB
%nprocshared=4
# B3LYP/6-311++G(d,p) empiricaldispersion=gd3bj scf=xqc pop=npa geom=check

CID_81482561_JID_8919_Energie_anion

-1 2
