%chk=JID_6832.chk
%mem=8GB
%nprocshared=4
# opt freq B3LYP/6-31G(d) empiricaldispersion=gd3bj scf=xqc

CID_144409389_JID_6832_neutraal

0 1
C          0.95030       -0.06477       -0.05775
C          1.17134       -1.45309        0.51747
C          1.26881       -1.42070        2.03325
C         -3.07453       -1.03401        0.51333
C         -2.68231       -1.58603       -0.81823
C         -3.24644       -2.66098       -1.38177
C          2.14237        3.60587       -0.79878
N          1.00924        3.88640        0.05196
C         -0.31911        3.65666       -0.20634
O         -1.13629        3.68413        0.70966
C         -0.76953        3.35247       -1.58407
C         -0.35329        4.11826       -2.67815
C         -0.81489        3.80761       -3.95873
C         -1.70205        2.74591       -4.14364
C         -2.14091        1.99998       -3.04941
C         -1.68229        2.30847       -1.76848
H          0.03059        0.38004        0.33460
H          0.86811       -0.11240       -1.14800
H          1.78471        0.59797        0.19202
H          0.34608       -2.10877        0.21964
H          2.09114       -1.87838        0.10108
H          0.34952       -1.02517        2.47703
H          1.42809       -2.43020        2.42485
H          2.10486       -0.79368        2.35925
H         -3.86899       -1.62043        0.98557
H         -3.43018       -0.00547        0.40138
H         -2.21014       -1.02862        1.18411
H         -1.88161       -1.07149       -1.34437
H         -2.91468       -3.01860       -2.35162
H         -4.04577       -3.20863       -0.89202
H          1.92913        2.77500       -1.47501
H          2.99092        3.34575       -0.16080
H          2.38622        4.50631       -1.36727
H          1.18847        4.08560        1.02923
H          0.30878        4.96775       -2.53867
H         -0.49346        4.40043       -4.81153
H         -2.06480        2.50891       -5.14103
H         -2.84662        1.18499       -3.19130
H         -2.03636        1.73886       -0.91270

--Link1--
%chk=JID_6832.chk
%mem=8GB
%nprocshared=4
# B3LYP/6-311++G(d,p) empiricaldispersion=gd3bj scf=xqc pop=npa geom=check

CID_144409389_JID_6832_Energie_neutraal

0 1

--Link1--
%chk=JID_6832.chk
%mem=8GB
%nprocshared=4
# B3LYP/6-311++G(d,p) empiricaldispersion=gd3bj scf=xqc pop=npa geom=check

CID_144409389_JID_6832_Energie_kation

1 2

--Link1--
%chk=JID_6832.chk
%mem=8GB
%nprocshared=4
# B3LYP/6-311++G(d,p) empiricaldispersion=gd3bj scf=xqc pop=npa geom=check

CID_144409389_JID_6832_Energie_anion

-1 2
