%chk=JID_7537.chk
%mem=8GB
%nprocshared=4
# opt freq B3LYP/6-31G(d) empiricaldispersion=gd3bj scf=xqc

CID_81080869_JID_7537_neutraal

0 1
C          0.99113       -0.08042       -0.05877
C          0.50565        1.35228        0.13684
C          0.46982        2.17248       -1.16854
C         -0.60810        1.69097       -2.16579
C         -1.99840        2.30296       -2.01989
O         -2.20011        3.42187       -2.50111
N         -3.02301        1.61912       -1.38509
C         -2.92948        0.27007       -0.81291
C         -3.34978        0.18926        0.65732
O         -3.75180       -0.84306        1.18285
N         -3.11698        1.30167        1.42025
C         -4.38547        2.10666       -1.68538
C         -4.83047        3.41639       -1.02184
O         -5.67641        4.16087       -1.51180
N         -4.40683        3.63446        0.25797
C          0.35746        3.69237       -0.91308
N          1.51719        4.22438       -0.20136
H          0.32622       -0.66091       -0.70194
H          1.04345       -0.59103        0.90841
H          1.99278       -0.09493       -0.50028
H         -0.47846        1.34341        0.60660
H          1.18529        1.81753        0.85878
H          1.43674        2.00552       -1.66651
H         -0.27834        1.99828       -3.17017
H         -0.65298        0.60383       -2.24265
H         -3.56931       -0.39387       -1.40400
H         -1.91357       -0.11523       -0.85847
H         -2.42756        1.97652        1.10616
H         -3.20225        1.16067        2.42152
H         -4.46079        2.24133       -2.77149
H         -5.11404        1.34171       -1.39244
H         -4.19573        2.83011        0.83500
H         -4.85652        4.41628        0.71799
H          0.29019        4.21732       -1.87261
H         -0.54558        3.92603       -0.33820
H          1.46169        5.24359       -0.19798
H          1.49185        3.94500        0.77713

--Link1--
%chk=JID_7537.chk
%mem=8GB
%nprocshared=4
# B3LYP/6-311++G(d,p) empiricaldispersion=gd3bj scf=xqc pop=npa geom=check

CID_81080869_JID_7537_Energie_neutraal

0 1

--Link1--
%chk=JID_7537.chk
%mem=8GB
%nprocshared=4
# B3LYP/6-311++G(d,p) empiricaldispersion=gd3bj scf=xqc pop=npa geom=check

CID_81080869_JID_7537_Energie_kation

1 2

--Link1--
%chk=JID_7537.chk
%mem=8GB
%nprocshared=4
# B3LYP/6-311++G(d,p) empiricaldispersion=gd3bj scf=xqc pop=npa geom=check

CID_81080869_JID_7537_Energie_anion

-1 2
