%chk=JID_6709.chk
%mem=8GB
%nprocshared=4
# opt freq B3LYP/6-31G(d) empiricaldispersion=gd3bj scf=xqc

CID_19091968_JID_6709_neutraal

0 1
C          0.94834       -0.05841       -0.06261
C          0.58640        1.29620        0.52679
C          1.05172        2.48248       -0.32576
C          0.44829        2.55893       -1.74156
C         -1.09494        2.61487       -1.78824
C         -1.81247        3.64534       -0.88163
C         -1.49060        5.11639       -1.17312
C         -1.78789        5.50820       -2.59501
O         -2.73242        5.14072       -3.27110
O         -0.87491        6.36467       -3.09106
C         -3.32517        3.48442       -0.86781
O         -4.09893        4.19172       -0.24000
O         -3.79354        2.45875       -1.59616
C          1.05152        3.65646       -2.60112
O          0.83801        3.81620       -3.79294
O          1.83878        4.52098       -1.94005
H          0.40334       -0.25101       -0.99118
H          0.69045       -0.85514        0.64259
H          2.02118       -0.12364       -0.26924
H         -0.49432        1.34123        0.69625
H          1.05697        1.38013        1.51405
H          0.83713        3.40793        0.22273
H          2.14618        2.43606       -0.40693
H          0.75391        1.64123       -2.26347
H         -1.42073        2.75428       -2.82733
H         -1.45634        1.61425       -1.51381
H         -1.51597        3.43754        0.15411
H         -2.06928        5.78686       -0.52659
H         -0.43714        5.31191       -0.95411
H         -1.15648        6.48904       -4.02311
H         -4.76785        2.54364       -1.53030
H          2.09052        5.18318       -2.61881

--Link1--
%chk=JID_6709.chk
%mem=8GB
%nprocshared=4
# B3LYP/6-311++G(d,p) empiricaldispersion=gd3bj scf=xqc pop=npa geom=check

CID_19091968_JID_6709_Energie_neutraal

0 1

--Link1--
%chk=JID_6709.chk
%mem=8GB
%nprocshared=4
# B3LYP/6-311++G(d,p) empiricaldispersion=gd3bj scf=xqc pop=npa geom=check

CID_19091968_JID_6709_Energie_kation

1 2

--Link1--
%chk=JID_6709.chk
%mem=8GB
%nprocshared=4
# B3LYP/6-311++G(d,p) empiricaldispersion=gd3bj scf=xqc pop=npa geom=check

CID_19091968_JID_6709_Energie_anion

-1 2
