%chk=JID_2381.chk
%mem=8GB
%nprocshared=4
# opt freq B3LYP/6-31G(d) empiricaldispersion=gd3bj scf=xqc

CID_123625053_JID_2381_neutraal

0 1
C          1.09423        0.00170        0.03342
C          1.03509        1.51922       -0.13838
C          1.38735        2.11874       -1.55612
C          0.91024        1.14342       -2.66005
C          0.47343        3.36683       -1.68221
C          2.97071        2.47261       -1.71727
C          3.45913        2.62071       -3.19738
C          3.12235        3.91271       -3.93024
C          3.71727        5.13767       -3.25721
S          3.07453        5.37115       -1.58423
C          3.41742        3.71916       -0.89118
C          3.82401        1.28957       -1.16240
H          0.34114       -0.49946       -0.58213
H          0.87451       -0.25492        1.07570
H          2.06875       -0.42366       -0.20584
H          0.00496        1.79837        0.12435
H          1.65471        1.98985        0.63267
H         -0.12582        0.82823       -2.48707
H          0.92390        1.61597       -3.64817
H          1.52723        0.24135       -2.70831
H          0.61463        4.05909       -0.84650
H          0.61362        3.90498       -2.61871
H         -0.58546        3.07704       -1.66056
H          4.55677        2.54511       -3.21117
H          3.12683        1.76940       -3.80151
H          2.04569        4.02121       -4.07702
H          3.54451        3.84680       -4.94167
H          3.47988        6.03186       -3.84264
H          4.80886        5.06314       -3.20926
H          2.98360        3.69179        0.11323
H          4.50444        3.69479       -0.74476
H          3.69145        1.15809       -0.08434
H          3.59035        0.34992       -1.67184
H          4.89700        1.46699       -1.30903

--Link1--
%chk=JID_2381.chk
%mem=8GB
%nprocshared=4
# B3LYP/6-311++G(d,p) empiricaldispersion=gd3bj scf=xqc pop=npa geom=check

CID_123625053_JID_2381_Energie_neutraal

0 1

--Link1--
%chk=JID_2381.chk
%mem=8GB
%nprocshared=4
# B3LYP/6-311++G(d,p) empiricaldispersion=gd3bj scf=xqc pop=npa geom=check

CID_123625053_JID_2381_Energie_kation

1 2

--Link1--
%chk=JID_2381.chk
%mem=8GB
%nprocshared=4
# B3LYP/6-311++G(d,p) empiricaldispersion=gd3bj scf=xqc pop=npa geom=check

CID_123625053_JID_2381_Energie_anion

-1 2
