%chk=JID_1649.chk
%mem=8GB
%nprocshared=4
# opt freq B3LYP/6-31G(d) empiricaldispersion=gd3bj scf=xqc

CID_115225657_JID_1649_neutraal

0 1
C         -2.38400        0.00700       -0.11600
N         -0.98263       -0.00603        0.30236
C         -0.37200       -1.30979        0.01447
C          1.07769       -1.35062        0.49433
C          1.91489       -0.23858       -0.13713
C          1.25154        1.13753        0.08213
C         -0.23572        1.07624       -0.37208
N          2.00140        2.29687       -0.44767
C          3.37152        2.39421        0.03241
C          1.82368        2.66441       -1.83373
N          2.30519        1.63139       -2.71758
H         -2.49761       -0.15926       -1.19339
H         -2.95025       -0.76713        0.41372
H         -2.85189        0.96502        0.13647
H         -0.92578       -2.10098        0.53443
H         -0.41262       -1.53551       -1.05935
H          1.51848       -2.32392        0.24970
H          1.10742       -1.25425        1.58721
H          2.02593       -0.45372       -1.20489
H          2.91696       -0.26709        0.30470
H          1.21715        1.29296        1.17121
H         -0.29824        0.94120       -1.45968
H         -0.70841        2.03700       -0.13009
H          4.03360        1.64820       -0.41879
H          3.78645        3.38576       -0.18141
H          3.41297        2.27421        1.12088
H          0.77182        2.87738       -2.05049
H          2.35058        3.60274       -2.04656
H          2.22975        1.95903       -3.67753
H          3.29561        1.49257       -2.54142

--Link1--
%chk=JID_1649.chk
%mem=8GB
%nprocshared=4
# B3LYP/6-311++G(d,p) empiricaldispersion=gd3bj scf=xqc pop=npa geom=check

CID_115225657_JID_1649_Energie_neutraal

0 1

--Link1--
%chk=JID_1649.chk
%mem=8GB
%nprocshared=4
# B3LYP/6-311++G(d,p) empiricaldispersion=gd3bj scf=xqc pop=npa geom=check

CID_115225657_JID_1649_Energie_kation

1 2

--Link1--
%chk=JID_1649.chk
%mem=8GB
%nprocshared=4
# B3LYP/6-311++G(d,p) empiricaldispersion=gd3bj scf=xqc pop=npa geom=check

CID_115225657_JID_1649_Energie_anion

-1 2
