%chk=JID_9603.chk
%mem=8GB
%nprocshared=4
# opt freq B3LYP/6-31G(d) empiricaldispersion=gd3bj scf=xqc

CID_47155144_JID_9603_neutraal

0 1
C         -1.68800        1.55400        0.08200
N         -0.50164        0.71743        0.16105
C          0.53213        1.09699        1.10641
C          1.89620        0.64223        0.61913
C          1.90546       -0.86364        0.38351
C          0.55085       -1.51013        0.08669
C         -0.56200       -0.57432       -0.33901
O         -1.50349       -0.99094       -1.01184
C          3.07334       -1.33482       -0.48054
O          4.16926       -1.53062        0.06154
N          2.97590       -1.64514       -1.80021
C          2.06137       -1.30705       -2.80559
C          1.41953       -0.07380       -2.87535
C          0.55968        0.21852       -3.93745
C          0.32890       -0.72839       -4.93288
C          0.97763       -1.96086       -4.87894
C          1.86517       -2.23645       -3.83429
C          0.71240       -2.95198       -5.87664
C          0.46340       -3.78940       -6.69932
H         -2.35022        1.23729       -0.72819
H         -2.22785        1.48429        1.03093
H         -1.38449        2.58959       -0.09576
H          0.53305        2.18660        1.21998
H          0.28878        0.64930        2.07683
H          2.18069        1.19469       -0.27942
H          2.65661        0.90220        1.36658
H          2.16582       -1.29542        1.36567
H          0.63506       -2.31184       -0.65389
H          0.18271       -1.99221        1.00329
H          3.74182       -2.24512       -2.08987
H          1.60787        0.70800       -2.15491
H          0.06968        1.18769       -3.98672
H         -0.35733       -0.49943       -5.74442
H          2.36330       -3.20278       -3.80254
H          0.22645       -4.53524       -7.42244

--Link1--
%chk=JID_9603.chk
%mem=8GB
%nprocshared=4
# B3LYP/6-311++G(d,p) empiricaldispersion=gd3bj scf=xqc pop=npa geom=check

CID_47155144_JID_9603_Energie_neutraal

0 1

--Link1--
%chk=JID_9603.chk
%mem=8GB
%nprocshared=4
# B3LYP/6-311++G(d,p) empiricaldispersion=gd3bj scf=xqc pop=npa geom=check

CID_47155144_JID_9603_Energie_kation

1 2

--Link1--
%chk=JID_9603.chk
%mem=8GB
%nprocshared=4
# B3LYP/6-311++G(d,p) empiricaldispersion=gd3bj scf=xqc pop=npa geom=check

CID_47155144_JID_9603_Energie_anion

-1 2
