%chk=JID_8280.chk
%mem=8GB
%nprocshared=4
# opt freq B3LYP/6-31G(d) empiricaldispersion=gd3bj scf=xqc

CID_11357532_JID_8280_neutraal

0 1
C         -0.78300       -1.00900       -0.20000
C         -1.29106        0.16279        0.63365
C         -0.24892        1.26346        0.48291
S          1.33245        0.42978        0.47322
N          1.96994        0.46563        1.88071
N          1.20117        0.53164        3.10877
C          0.75326       -0.57472        3.79849
O          0.76008       -1.75997        3.51844
C          0.15327       -0.05522        5.02640
C         -0.46548       -0.72687        6.06348
C         -0.97107        0.04537        7.11353
C         -0.84935        1.45031        7.10211
C         -0.21942        2.10766        6.04077
C          0.27387        1.32387        5.01540
C          0.95311        1.71156        3.77966
O          1.15747        2.87269        3.47361
O          2.00408        0.83546       -0.74740
C          0.68144       -1.20840        0.17548
H         -0.86138       -0.76145       -1.26569
H         -1.36711       -1.91765       -0.02605
H         -2.27753        0.49996        0.30172
H         -1.37681       -0.13878        1.68361
H         -0.30120        2.00779        1.27709
H         -0.35914        1.77031       -0.48138
H         -0.55498       -1.80902        6.06081
H         -1.46593       -0.44231        7.95228
H         -1.25216        2.02923        7.93206
H         -0.12181        3.18898        6.02034
H          0.77440       -1.80610        1.08128
H          1.24888       -1.68640       -0.62679

--Link1--
%chk=JID_8280.chk
%mem=8GB
%nprocshared=4
# B3LYP/6-311++G(d,p) empiricaldispersion=gd3bj scf=xqc pop=npa geom=check

CID_11357532_JID_8280_Energie_neutraal

0 1

--Link1--
%chk=JID_8280.chk
%mem=8GB
%nprocshared=4
# B3LYP/6-311++G(d,p) empiricaldispersion=gd3bj scf=xqc pop=npa geom=check

CID_11357532_JID_8280_Energie_kation

1 2

--Link1--
%chk=JID_8280.chk
%mem=8GB
%nprocshared=4
# B3LYP/6-311++G(d,p) empiricaldispersion=gd3bj scf=xqc pop=npa geom=check

CID_11357532_JID_8280_Energie_anion

-1 2
