%chk=JID_4070.chk
%mem=8GB
%nprocshared=4
# opt freq B3LYP/6-31G(d) empiricaldispersion=gd3bj scf=xqc

CID_150704913_JID_4070_neutraal

0 1
C          0.97053       -0.06605       -0.06905
C          0.44725       -0.67293       -1.36775
C          0.98399       -2.07062       -1.71664
O          0.57843       -3.08180       -0.78408
C          1.44445       -3.35415        0.22685
O          2.54498       -2.84112        0.37662
C          0.87211       -4.40847        1.12337
O         -0.99585       -0.61178       -1.48981
C         -1.80370       -1.14084       -0.53350
O         -1.43066       -1.61660        0.53223
C         -3.28867       -1.00045       -0.91328
C         -3.84555        0.29695       -0.33313
O         -3.63177       -1.22789       -2.27866
C         -3.51776       -0.12190       -3.15966
H          0.74792       -0.67716        0.80838
H          0.51381        0.91449        0.10280
H          2.05696        0.06079       -0.11555
H          0.79987       -0.00952       -2.16794
H          0.56802       -2.37705       -2.68325
H          2.07404       -2.05152       -1.83369
H         -0.13866       -4.12933        1.43192
H          0.86224       -5.36897        0.60265
H          1.49038       -4.49466        2.02136
H         -3.77796       -1.82847       -0.38388
H         -3.34440        1.17241       -0.76061
H         -4.91532        0.39152       -0.54550
H         -3.69853        0.33709        0.75138
H         -4.30288        0.61222       -2.95807
H         -2.53601        0.35241       -3.10313
H         -3.66077       -0.48898       -4.18009

--Link1--
%chk=JID_4070.chk
%mem=8GB
%nprocshared=4
# B3LYP/6-311++G(d,p) empiricaldispersion=gd3bj scf=xqc pop=npa geom=check

CID_150704913_JID_4070_Energie_neutraal

0 1

--Link1--
%chk=JID_4070.chk
%mem=8GB
%nprocshared=4
# B3LYP/6-311++G(d,p) empiricaldispersion=gd3bj scf=xqc pop=npa geom=check

CID_150704913_JID_4070_Energie_kation

1 2

--Link1--
%chk=JID_4070.chk
%mem=8GB
%nprocshared=4
# B3LYP/6-311++G(d,p) empiricaldispersion=gd3bj scf=xqc pop=npa geom=check

CID_150704913_JID_4070_Energie_anion

-1 2
