%chk=JID_7988.chk
%mem=8GB
%nprocshared=4
# opt freq B3LYP/6-31G(d) empiricaldispersion=gd3bj scf=xqc

CID_105492594_JID_7988_neutraal

0 1
C          1.01058        0.05560       -0.08244
C          0.93010        1.03959       -1.23809
O          1.44660        0.45812       -2.44416
C          2.77773        0.75143       -2.60613
C          3.11422        1.98316       -3.15739
C          4.45087        2.31919       -3.28895
C          5.43766        1.42666       -2.85440
C          5.14909        0.14988       -2.30346
C          3.77205       -0.18504       -2.25162
O          3.40560       -1.42186       -1.77092
C          2.63677       -2.16943       -2.71705
C          6.32800       -0.73924       -1.79809
C          6.11767       -1.61423       -0.56436
C          6.25901       -2.25759       -1.91098
N          7.63471       -0.11519       -1.96582
C          8.60087       -0.66464       -1.59441
O          9.56999       -1.21629       -1.22106
H          0.56722       -0.90620       -0.35901
H          0.48479        0.44814        0.79291
H          2.04912       -0.13391        0.20383
H         -0.12249        1.27414       -1.43156
H          1.42273        1.98549       -0.97864
H          2.33950        2.67630       -3.47058
H          4.73564        3.28009       -3.70970
H          6.47345        1.75037       -2.94992
H          1.56709       -2.01184       -2.55449
H          2.90843       -1.94306       -3.75473
H          2.84057       -3.23050       -2.54285
H          6.92011       -1.74372        0.15297
H          5.14640       -1.62462       -0.08304
H          5.39090       -2.71808       -2.36275
H          7.15881       -2.82992       -2.10785

--Link1--
%chk=JID_7988.chk
%mem=8GB
%nprocshared=4
# B3LYP/6-311++G(d,p) empiricaldispersion=gd3bj scf=xqc pop=npa geom=check

CID_105492594_JID_7988_Energie_neutraal

0 1

--Link1--
%chk=JID_7988.chk
%mem=8GB
%nprocshared=4
# B3LYP/6-311++G(d,p) empiricaldispersion=gd3bj scf=xqc pop=npa geom=check

CID_105492594_JID_7988_Energie_kation

1 2

--Link1--
%chk=JID_7988.chk
%mem=8GB
%nprocshared=4
# B3LYP/6-311++G(d,p) empiricaldispersion=gd3bj scf=xqc pop=npa geom=check

CID_105492594_JID_7988_Energie_anion

-1 2
