%chk=JID_10202.chk
%mem=8GB
%nprocshared=4
# opt freq B3LYP/6-31G(d) empiricaldispersion=gd3bj scf=xqc

CID_107116940_JID_10202_neutraal

0 1
C          0.91625        0.03395       -0.04281
N          0.36027       -0.19156       -1.39598
C         -1.04777        0.26335       -1.47255
S          1.39749        0.42058       -2.61279
O          1.38286        1.86845       -2.51670
O          2.65541       -0.29470       -2.51467
C          0.62057       -0.06401       -4.13149
C          0.91628       -1.33697       -4.64414
C          0.38482       -1.73853       -5.86925
C         -0.41758       -0.86368       -6.59958
C         -0.67790        0.41498       -6.10234
C         -0.16914        0.83810       -4.85637
N         -0.65218        2.05100       -4.31418
O         -1.42792        1.34294       -6.78270
C         -1.09803        1.54448       -8.16803
C         -1.99672        2.69265       -8.65481
C         -1.64004        4.02277       -7.98462
C         -0.16884        4.37907       -8.17751
C          0.75721        3.24763       -7.74534
C          0.37640        1.92273       -8.40475
H          0.31532       -0.50474        0.69740
H          0.91355        1.09778        0.21375
H          1.93478       -0.35823        0.03138
H         -1.11824        1.35409       -1.44544
H         -1.52955       -0.12519       -2.37299
H         -1.61310       -0.13487       -0.62276
H          1.55466       -2.02042       -4.08662
H          0.60035       -2.73197       -6.25566
H         -0.83780       -1.19267       -7.54439
H          0.02290        2.51513       -3.69797
H         -1.00202        2.66776       -5.04588
H         -1.35782        0.64495       -8.73821
H         -1.90347        2.79786       -9.74244
H         -3.04599        2.46273       -8.43445
H         -1.86480        3.97015       -6.91242
H         -2.26658        4.82139       -8.39747
H          0.06952        5.28564       -7.60958
H          0.01199        4.60901       -9.23452
H          0.72775        3.14724       -6.65539
H          1.79143        3.50087       -8.00545
H          1.04968        1.14252       -8.03461
H          0.55370        1.99876       -9.48507

--Link1--
%chk=JID_10202.chk
%mem=8GB
%nprocshared=4
# B3LYP/6-311++G(d,p) empiricaldispersion=gd3bj scf=xqc pop=npa geom=check

CID_107116940_JID_10202_Energie_neutraal

0 1

--Link1--
%chk=JID_10202.chk
%mem=8GB
%nprocshared=4
# B3LYP/6-311++G(d,p) empiricaldispersion=gd3bj scf=xqc pop=npa geom=check

CID_107116940_JID_10202_Energie_kation

1 2

--Link1--
%chk=JID_10202.chk
%mem=8GB
%nprocshared=4
# B3LYP/6-311++G(d,p) empiricaldispersion=gd3bj scf=xqc pop=npa geom=check

CID_107116940_JID_10202_Energie_anion

-1 2
