%chk=JID_4402.chk
%mem=8GB
%nprocshared=4
# opt freq B3LYP/6-31G(d) empiricaldispersion=gd3bj scf=xqc

CID_66255166_JID_4402_neutraal

0 1
C          1.07865       -0.04944       -0.03702
C          0.50331        1.33490        0.22752
C          1.06875        2.42720       -0.68885
N          0.70231        2.18744       -2.08277
C          1.10731        3.21855       -3.04656
C          2.60145        3.51473       -3.16807
O          2.68293        4.74983       -3.89403
C          1.56397        5.55428       -3.48101
C          0.52044        4.61854       -2.88630
C         -0.88158        4.83478       -3.44467
O         -1.76650        5.15407       -2.63850
N         -1.17334        4.72139       -4.79798
C         -0.29305        4.22223       -5.84464
C         -2.57033        4.85261       -5.19349
H          0.77682       -0.43218       -1.01640
H          0.71755       -0.75527        0.71803
H          2.17218       -0.03562        0.00860
H         -0.58918        1.29765        0.13710
H          0.72294        1.60909        1.26661
H          0.66645        3.38296       -0.34044
H          2.15711        2.45792       -0.57128
H          1.08158        1.28791       -2.37862
H          0.78750        2.81315       -4.01006
H          3.08792        3.66922       -2.19967
H          3.14142        2.73397       -3.71165
H          1.21791        6.15078       -4.32980
H          1.92821        6.25577       -2.72131
H          0.45394        4.88170       -1.82292
H         -0.53482        3.17105       -6.02860
H         -0.46403        4.79666       -6.76032
H          0.76018        4.30570       -5.59254
H         -3.00175        3.85049       -5.27783
H         -3.15356        5.42981       -4.47133
H         -2.62859        5.35892       -6.16182

--Link1--
%chk=JID_4402.chk
%mem=8GB
%nprocshared=4
# B3LYP/6-311++G(d,p) empiricaldispersion=gd3bj scf=xqc pop=npa geom=check

CID_66255166_JID_4402_Energie_neutraal

0 1

--Link1--
%chk=JID_4402.chk
%mem=8GB
%nprocshared=4
# B3LYP/6-311++G(d,p) empiricaldispersion=gd3bj scf=xqc pop=npa geom=check

CID_66255166_JID_4402_Energie_kation

1 2

--Link1--
%chk=JID_4402.chk
%mem=8GB
%nprocshared=4
# B3LYP/6-311++G(d,p) empiricaldispersion=gd3bj scf=xqc pop=npa geom=check

CID_66255166_JID_4402_Energie_anion

-1 2
