%chk=JID_10152.chk
%mem=8GB
%nprocshared=4
# opt freq B3LYP/6-31G(d) empiricaldispersion=gd3bj scf=xqc

CID_62059415_JID_10152_neutraal

0 1
C          1.01046        0.06423        0.07592
N          0.80731        1.09149       -0.93319
C         -0.54186        1.09143       -1.50406
C         -1.66603        1.75416       -0.69504
C         -1.92594        3.21898       -1.06019
C         -3.30693        3.50461       -0.47938
C         -4.03424        2.16105       -0.45568
C         -3.03741        1.13663       -0.98882
C          1.42304        2.38967       -0.63813
C          1.17876        3.11747        0.72020
C          1.87011        2.53011        1.93244
C          1.10145        2.07592        3.02034
C          1.75766        1.54596        4.11079
C          3.12761        1.46243        4.16232
C          3.91931        1.90805        3.12710
C          3.28113        2.44945        2.00565
O          3.57023        0.91062        5.32362
C          2.31991        0.66477        5.99996
O          1.16330        1.05599        5.23167
O          1.63500        4.47396        0.60932
H          0.77737       -0.92521       -0.33408
H          0.37889        0.21294        0.95596
H          2.05880        0.01944        0.38914
H         -0.48654        1.55654       -2.49696
H         -0.81887        0.04880       -1.71133
H         -1.48006        1.65615        0.38169
H         -1.17867        3.91432       -0.67498
H         -1.95786        3.34571       -2.14984
H         -3.84479        4.25098       -1.07239
H         -3.21686        3.89579        0.54075
H         -4.94676        2.17992       -1.05992
H         -4.32528        1.91454        0.57197
H         -3.18239        1.00490       -2.06835
H         -3.16311        0.15975       -0.51128
H          2.50714        2.26781       -0.76744
H          1.15584        3.08218       -1.44850
H          0.10855        3.17908        0.92707
H          0.01817        2.13210        3.01402
H          4.99985        1.84849        3.18357
H          3.88676        2.82740        1.18374
H          2.24616       -0.40613        6.22177
H          2.31667        1.22006        6.94509
H          1.07592        4.90865       -0.05571

--Link1--
%chk=JID_10152.chk
%mem=8GB
%nprocshared=4
# B3LYP/6-311++G(d,p) empiricaldispersion=gd3bj scf=xqc pop=npa geom=check

CID_62059415_JID_10152_Energie_neutraal

0 1

--Link1--
%chk=JID_10152.chk
%mem=8GB
%nprocshared=4
# B3LYP/6-311++G(d,p) empiricaldispersion=gd3bj scf=xqc pop=npa geom=check

CID_62059415_JID_10152_Energie_kation

1 2

--Link1--
%chk=JID_10152.chk
%mem=8GB
%nprocshared=4
# B3LYP/6-311++G(d,p) empiricaldispersion=gd3bj scf=xqc pop=npa geom=check

CID_62059415_JID_10152_Energie_anion

-1 2
