%chk=JID_10803.chk
%mem=8GB
%nprocshared=4
# opt freq B3LYP/6-31G(d) empiricaldispersion=gd3bj scf=xqc

CID_117165690_JID_10803_neutraal

0 1
C          0.90216       -0.02064       -0.00076
C          0.00986        0.30166       -1.19213
C          0.36658       -0.50764       -2.44310
C          0.09823       -1.97136       -2.27680
N         -1.02981       -2.44442       -1.77197
C         -0.89582       -3.80373       -1.74922
C          0.33142       -4.18201       -2.26887
N          0.95135       -3.00592       -2.62480
C          2.27014       -2.96520       -3.25590
C          3.34415       -2.39453       -2.31150
C          4.75862       -2.54183       -2.87524
C          4.93220       -1.81796       -4.20003
S          3.80851       -2.43091       -5.43717
O          3.81366       -1.48958       -6.53954
O          4.09465       -3.83412       -5.65481
C          2.23375       -2.29865       -4.62593
N          0.81409       -5.43388       -2.40162
C         -0.05621       -6.37341       -1.95804
C         -1.31514       -6.12751       -1.41797
C         -1.76043       -4.80887       -1.30478
H          0.78496       -1.06007        0.32056
H          0.64346        0.62219        0.84670
H          1.95602        0.14860       -0.24341
H         -1.03833        0.13948       -0.91399
H          0.11292        1.36821       -1.42573
H         -0.24415       -0.14797       -3.28026
H          1.40474       -0.29998       -2.70441
H          2.54748       -4.01391       -3.42792
H          3.29697       -2.91660       -1.34713
H          3.16020       -1.33796       -2.09450
H          4.99259       -3.60645       -2.99576
H          5.47597       -2.13982       -2.15053
H          5.94598       -1.95542       -4.58827
H          4.74550       -0.74478       -4.09045
H          2.00066       -1.23251       -4.57330
H          1.49443       -2.77233       -5.28093
H          0.30267       -7.39651       -2.05232
H         -1.94149       -6.95015       -1.08961
H         -2.73087       -4.56380       -0.89112

--Link1--
%chk=JID_10803.chk
%mem=8GB
%nprocshared=4
# B3LYP/6-311++G(d,p) empiricaldispersion=gd3bj scf=xqc pop=npa geom=check

CID_117165690_JID_10803_Energie_neutraal

0 1

--Link1--
%chk=JID_10803.chk
%mem=8GB
%nprocshared=4
# B3LYP/6-311++G(d,p) empiricaldispersion=gd3bj scf=xqc pop=npa geom=check

CID_117165690_JID_10803_Energie_kation

1 2

--Link1--
%chk=JID_10803.chk
%mem=8GB
%nprocshared=4
# B3LYP/6-311++G(d,p) empiricaldispersion=gd3bj scf=xqc pop=npa geom=check

CID_117165690_JID_10803_Energie_anion

-1 2
