%chk=JID_10544.chk
%mem=8GB
%nprocshared=4
# opt freq B3LYP/6-31G(d) empiricaldispersion=gd3bj scf=xqc

CID_82216156_JID_10544_neutraal

0 1
C          1.05751        0.04717        0.06684
O          0.61757       -1.29359        0.28059
C          0.73145       -2.00762       -0.88304
C         -0.34566       -2.17412       -1.75779
C         -0.15825       -2.90073       -2.93897
C          1.06848       -3.52194       -3.22806
C          2.13109       -3.35274       -2.32615
C          1.96153       -2.60857       -1.15806
C          1.26564       -4.38203       -4.45894
C          1.42797       -5.90680       -4.17742
N          0.13734       -6.62247       -4.11616
C          0.16427       -7.96255       -4.72890
C          1.06910       -9.03663       -4.10621
O          0.47147       -9.59313       -2.93435
C         -0.59184       -6.54971       -2.83653
C          0.17166       -6.52054       -1.49482
O          1.06656       -7.61070       -1.32752
O          0.20316       -4.19538       -5.40345
O         -1.59849       -1.64275       -1.60333
C         -2.11893       -1.70988       -0.27932
H          0.87254        0.60995        0.98674
H          0.49754        0.52950       -0.74238
H          2.13273        0.08175       -0.13978
H         -0.99484       -3.00053       -3.62788
H          3.09687       -3.81547       -2.51898
H          2.78746       -2.49965       -0.46091
H          2.17356       -4.02346       -4.96007
H          1.97266       -6.29071       -5.05154
H          2.07684       -6.11034       -3.31968
H         -0.86342       -8.34509       -4.77731
H          0.47078       -7.83424       -5.77518
H          1.20117       -9.85259       -4.82483
H          2.05813       -8.64341       -3.85255
H          1.02237      -10.35902       -2.68515
H         -1.21215       -5.64628       -2.87186
H         -1.31587       -7.37366       -2.78982
H          0.74301       -5.60104       -1.37245
H         -0.55073       -6.55589       -0.67221
H          0.63534       -8.38516       -1.74646
H         -0.34589       -5.00074       -5.30624
H         -1.81011       -2.61903        0.24871
H         -1.84596       -0.81305        0.28379
H         -3.21078       -1.72804       -0.35492

--Link1--
%chk=JID_10544.chk
%mem=8GB
%nprocshared=4
# B3LYP/6-311++G(d,p) empiricaldispersion=gd3bj scf=xqc pop=npa geom=check

CID_82216156_JID_10544_Energie_neutraal

0 1

--Link1--
%chk=JID_10544.chk
%mem=8GB
%nprocshared=4
# B3LYP/6-311++G(d,p) empiricaldispersion=gd3bj scf=xqc pop=npa geom=check

CID_82216156_JID_10544_Energie_kation

1 2

--Link1--
%chk=JID_10544.chk
%mem=8GB
%nprocshared=4
# B3LYP/6-311++G(d,p) empiricaldispersion=gd3bj scf=xqc pop=npa geom=check

CID_82216156_JID_10544_Energie_anion

-1 2
