%chk=JID_5908.chk
%mem=8GB
%nprocshared=4
# opt freq B3LYP/6-31G(d) empiricaldispersion=gd3bj scf=xqc

CID_116507445_JID_5908_neutraal

0 1
C          1.08515        0.01034       -0.05140
C          0.50168       -0.77677       -1.19460
O         -0.33358       -1.65961       -1.02028
N          0.92153       -0.47455       -2.45781
C          1.99657        0.42791       -2.83669
C          3.36160       -0.27187       -2.83514
N          3.47642       -1.26274       -3.89782
C          3.51662       -1.08178       -5.22888
S          2.91874       -2.29359       -6.20846
N          4.00310        0.02458       -5.81306
C          4.92346        1.03481       -5.32101
C          5.96751        1.42178       -6.36855
C          6.52065        2.73883       -5.84267
C          5.35322        3.41358       -5.12498
C          4.23838        2.37289       -5.05141
H          0.67663       -0.36669        0.89108
H          0.81414        1.06502       -0.14608
H          2.17108       -0.10260       -0.02115
H          0.51122       -1.05813       -3.17932
H          1.75051        0.81355       -3.83121
H          2.01679        1.27300       -2.14272
H          4.15910        0.46272       -2.90927
H          3.51538       -0.81354       -1.89558
H          3.07367       -2.16401       -3.66043
H          3.89646       -0.00680       -6.82186
H          5.45213        0.66294       -4.43842
H          6.74565        0.66048       -6.48203
H          5.50490        1.57487       -7.35173
H          6.92842        3.36231       -6.64391
H          7.32958        2.54700       -5.12762
H          5.01365        4.30564       -5.66179
H          5.65830        3.73117       -4.12167
H          3.48724        2.58422       -5.82354
H          3.72286        2.40572       -4.08853

--Link1--
%chk=JID_5908.chk
%mem=8GB
%nprocshared=4
# B3LYP/6-311++G(d,p) empiricaldispersion=gd3bj scf=xqc pop=npa geom=check

CID_116507445_JID_5908_Energie_neutraal

0 1

--Link1--
%chk=JID_5908.chk
%mem=8GB
%nprocshared=4
# B3LYP/6-311++G(d,p) empiricaldispersion=gd3bj scf=xqc pop=npa geom=check

CID_116507445_JID_5908_Energie_kation

1 2

--Link1--
%chk=JID_5908.chk
%mem=8GB
%nprocshared=4
# B3LYP/6-311++G(d,p) empiricaldispersion=gd3bj scf=xqc pop=npa geom=check

CID_116507445_JID_5908_Energie_anion

-1 2
