%chk=JID_6870.chk
%mem=8GB
%nprocshared=4
# opt freq B3LYP/6-31G(d) empiricaldispersion=gd3bj scf=xqc

CID_64188499_JID_6870_neutraal

0 1
C          0.96289       -0.03575       -0.08570
C         -0.08437        0.59661       -0.99183
C          0.45164        0.88506       -2.39707
C          0.64378       -0.36941       -3.27704
C         -0.70199       -0.83825       -3.83908
C          1.62274       -0.08146       -4.43207
O          2.97117       -0.23492       -3.96369
C          3.69201        0.91060       -4.00761
C          4.19044        1.50446       -5.15421
S          5.05631        2.94102       -4.74920
C          4.84662        2.70226       -3.07209
C          4.11957        1.56237       -2.81600
C          5.43409        3.66431       -2.09843
C          4.12040        1.14295       -6.55096
O          4.54131        1.76239       -7.51950
O          3.51055       -0.04475       -6.75997
H          1.26009       -1.02657       -0.44002
H          0.56112       -0.15205        0.92606
H          1.85810        0.59097       -0.02186
H         -0.97354       -0.04054       -1.03277
H         -0.39783        1.54554       -0.53998
H         -0.24041        1.57293       -2.90018
H          1.39199        1.43308       -2.29382
H          1.06443       -1.17997       -2.67121
H         -1.15638       -0.07100       -4.47526
H         -0.57468       -1.74322       -4.44299
H         -1.40786       -1.07784       -3.03822
H          1.48929       -0.83070       -5.22074
H          1.42693        0.90296       -4.87846
H          3.88136        1.21464       -1.81820
H          6.52761        3.61565       -2.12025
H          5.12395        4.68993       -2.32385
H          5.10769        3.43502       -1.07837
H          3.57791       -0.15574       -7.72995

--Link1--
%chk=JID_6870.chk
%mem=8GB
%nprocshared=4
# B3LYP/6-311++G(d,p) empiricaldispersion=gd3bj scf=xqc pop=npa geom=check

CID_64188499_JID_6870_Energie_neutraal

0 1

--Link1--
%chk=JID_6870.chk
%mem=8GB
%nprocshared=4
# B3LYP/6-311++G(d,p) empiricaldispersion=gd3bj scf=xqc pop=npa geom=check

CID_64188499_JID_6870_Energie_kation

1 2

--Link1--
%chk=JID_6870.chk
%mem=8GB
%nprocshared=4
# B3LYP/6-311++G(d,p) empiricaldispersion=gd3bj scf=xqc pop=npa geom=check

CID_64188499_JID_6870_Energie_anion

-1 2
