%chk=JID_7103.chk
%mem=8GB
%nprocshared=4
# opt freq B3LYP/6-31G(d) empiricaldispersion=gd3bj scf=xqc

CID_82128797_JID_7103_neutraal

0 1
C          2.24700        0.13300       -0.01700
C          0.78368        0.16569       -0.17906
C         -0.14344        1.13939       -0.48704
N         -1.40177        0.58097       -0.50275
C         -1.20135       -0.69049       -0.21279
O          0.11446       -1.01312       -0.00758
C         -2.17384       -1.76981       -0.08829
C         -3.53387       -1.49526       -0.25790
C         -4.44252       -2.53239       -0.13763
N         -4.09234       -3.80645        0.13535
C         -2.77576       -4.05339        0.29658
C         -1.79208       -3.08360        0.19638
C          0.06384        2.58725       -0.77049
C         -0.77775        3.09728       -1.93456
C         -2.20335        3.33307       -1.52233
O         -2.58749        3.84807       -0.48508
O         -3.08333        3.00053       -2.48713
H          2.54383       -0.62766        0.71179
H          2.72932       -0.09866       -0.97133
H          2.62391        1.09861        0.33350
H         -3.87927       -0.48977       -0.47862
H         -5.50788       -2.36007       -0.26129
H         -2.52220       -5.08676        0.51596
H         -0.75149       -3.35562        0.33823
H         -0.13707        3.15907        0.14313
H          1.12019        2.74969       -1.01792
H         -0.38711        4.05683       -2.29151
H         -0.74564        2.38993       -2.77157
H         -3.95330        3.20812       -2.08773

--Link1--
%chk=JID_7103.chk
%mem=8GB
%nprocshared=4
# B3LYP/6-311++G(d,p) empiricaldispersion=gd3bj scf=xqc pop=npa geom=check

CID_82128797_JID_7103_Energie_neutraal

0 1

--Link1--
%chk=JID_7103.chk
%mem=8GB
%nprocshared=4
# B3LYP/6-311++G(d,p) empiricaldispersion=gd3bj scf=xqc pop=npa geom=check

CID_82128797_JID_7103_Energie_kation

1 2

--Link1--
%chk=JID_7103.chk
%mem=8GB
%nprocshared=4
# B3LYP/6-311++G(d,p) empiricaldispersion=gd3bj scf=xqc pop=npa geom=check

CID_82128797_JID_7103_Energie_anion

-1 2
