%chk=JID_3003.chk
%mem=8GB
%nprocshared=4
# opt freq B3LYP/6-31G(d) empiricaldispersion=gd3bj scf=xqc

CID_63811755_JID_3003_neutraal

0 1
C          1.05703        0.06338       -0.05226
C          0.74429       -1.25442        0.63953
C          1.24764       -1.32387        2.08504
C          0.62650       -0.29799        3.03376
N         -0.80863       -0.46651        3.16750
C         -1.50718       -1.15910        4.11543
O         -2.71936       -1.31469        3.94882
C         -0.81085       -1.66644        5.36046
N         -0.06796       -2.89684        5.14434
C          1.25292       -3.08834        5.46350
C          1.58386       -4.38635        5.14060
C          0.41814       -5.00522        4.63120
C         -0.59067       -4.06759        4.65842
H          0.50350        0.89342        0.39613
H          0.77249        0.00937       -1.10806
H          2.12647        0.29058       -0.00108
H         -0.33521       -1.43927        0.60281
H          1.21780       -2.06490        0.07213
H          1.05282       -2.33447        2.46026
H          2.33642       -1.19149        2.09000
H          1.10125       -0.37578        4.01476
H          0.79781        0.72146        2.67543
H         -1.38797       -0.18839        2.38310
H         -0.14010       -0.90222        5.76399
H         -1.56249       -1.88034        6.12903
H          1.85217       -2.29476        5.89039
H          2.55729       -4.84184        5.26859
H          0.31987       -6.02778        4.29031
H         -1.63172       -4.14033        4.36672

--Link1--
%chk=JID_3003.chk
%mem=8GB
%nprocshared=4
# B3LYP/6-311++G(d,p) empiricaldispersion=gd3bj scf=xqc pop=npa geom=check

CID_63811755_JID_3003_Energie_neutraal

0 1

--Link1--
%chk=JID_3003.chk
%mem=8GB
%nprocshared=4
# B3LYP/6-311++G(d,p) empiricaldispersion=gd3bj scf=xqc pop=npa geom=check

CID_63811755_JID_3003_Energie_kation

1 2

--Link1--
%chk=JID_3003.chk
%mem=8GB
%nprocshared=4
# B3LYP/6-311++G(d,p) empiricaldispersion=gd3bj scf=xqc pop=npa geom=check

CID_63811755_JID_3003_Energie_anion

-1 2
