%chk=JID_6982.chk
%mem=8GB
%nprocshared=4
# opt freq B3LYP/6-31G(d) empiricaldispersion=gd3bj scf=xqc

CID_62568952_JID_6982_neutraal

0 1
C          1.05934       -0.04394       -0.06744
C          0.23901       -0.07399       -1.35036
C          0.16863       -1.46394       -2.02217
C         -0.40913       -2.56071       -1.10075
C         -1.79552       -2.28894       -0.52928
N         -0.60753       -1.27975       -3.25443
C         -0.08694       -1.97285       -4.43955
C         -0.38318       -3.50017       -4.57408
C         -1.88741       -3.78350       -4.49118
N          0.27638       -4.09152       -5.74643
C          0.72673       -5.47561       -5.64790
C         -0.27868       -6.55215       -6.03016
C          0.13676       -3.53153       -7.08712
C         -1.23286       -3.69433       -7.78622
C         -1.95495       -2.35008       -7.92552
C         -1.05984       -4.30509       -9.18231
H          0.58598       -0.62551        0.72863
H          1.15670        0.98613        0.29057
H          2.06563       -0.43983       -0.23639
H         -0.76737        0.30770       -1.13769
H          0.69331        0.63716       -2.05369
H          1.19867       -1.75137       -2.27177
H         -0.44208       -3.51524       -1.63531
H          0.28210       -2.72512       -0.26508
H         -2.54432       -2.16355       -1.31583
H         -2.10994       -3.13422        0.09213
H         -1.80385       -1.39734        0.10363
H         -1.59447       -1.47754       -3.11629
H         -0.52938       -1.45337       -5.29620
H          0.99396       -1.79807       -4.52033
H          0.07378       -3.96788       -3.69473
H         -2.12061       -4.83501       -4.66540
H         -2.27028       -3.55115       -3.49224
H         -2.46142       -3.18695       -5.20265
H          1.61549       -5.60120       -6.27989
H          1.08667       -5.68154       -4.63207
H         -0.64618       -6.42776       -7.05077
H          0.20067       -7.53597       -5.97769
H         -1.13203       -6.57661       -5.34974
H          0.41691       -2.47162       -7.06240
H          0.91798       -3.97605       -7.71878
H         -1.87618       -4.37173       -7.21475
H         -1.38460       -1.65837       -8.55550
H         -2.93967       -2.48669       -8.38536
H         -2.10714       -1.86821       -6.95722
H         -0.57406       -5.28429       -9.12678
H         -2.03177       -4.44363       -9.66811
H         -0.44963       -3.66115       -9.82506

--Link1--
%chk=JID_6982.chk
%mem=8GB
%nprocshared=4
# B3LYP/6-311++G(d,p) empiricaldispersion=gd3bj scf=xqc pop=npa geom=check

CID_62568952_JID_6982_Energie_neutraal

0 1

--Link1--
%chk=JID_6982.chk
%mem=8GB
%nprocshared=4
# B3LYP/6-311++G(d,p) empiricaldispersion=gd3bj scf=xqc pop=npa geom=check

CID_62568952_JID_6982_Energie_kation

1 2

--Link1--
%chk=JID_6982.chk
%mem=8GB
%nprocshared=4
# B3LYP/6-311++G(d,p) empiricaldispersion=gd3bj scf=xqc pop=npa geom=check

CID_62568952_JID_6982_Energie_anion

-1 2
