%chk=JID_5655.chk
%mem=8GB
%nprocshared=4
# opt freq B3LYP/6-31G(d) empiricaldispersion=gd3bj scf=xqc

CID_103850413_JID_5655_neutraal

0 1
C          0.92196        0.01455        0.06081
S         -0.24412       -1.37423        0.06232
C          0.51923       -2.42314       -1.24428
C          1.73881       -3.18689       -0.71625
C          1.37118       -4.34004        0.21487
C          0.38917       -5.30118       -0.44899
C         -0.86638       -4.60836       -0.98378
C         -0.52009       -3.38595       -1.84869
N         -1.73867       -4.19833        0.11856
S         -2.93148       -5.17330        0.73814
O         -2.43080       -6.53206        0.74150
O         -3.37757       -4.55115        1.96527
C         -4.25193       -5.09416       -0.45385
C         -4.56525       -3.69519       -0.68572
N         -4.84857       -2.59778       -0.93836
H          0.58523        0.76154        0.78468
H          0.95550        0.48131       -0.92691
H          1.92233       -0.31578        0.34898
H          0.84117       -1.74197       -2.04058
H          2.28305       -3.60113       -1.57570
H          2.44394       -2.51672       -0.21236
H          0.94679       -3.95716        1.14988
H          2.28093       -4.88732        0.48850
H          0.12836       -6.09291        0.26178
H          0.89865       -5.79372       -1.28755
H         -1.41693       -5.31800       -1.61355
H         -1.43235       -2.84229       -2.12748
H         -0.09972       -3.76458       -2.79106
H         -1.53121       -3.32917        0.62516
H         -3.91886       -5.59994       -1.36365
H         -5.10174       -5.64008       -0.03528

--Link1--
%chk=JID_5655.chk
%mem=8GB
%nprocshared=4
# B3LYP/6-311++G(d,p) empiricaldispersion=gd3bj scf=xqc pop=npa geom=check

CID_103850413_JID_5655_Energie_neutraal

0 1

--Link1--
%chk=JID_5655.chk
%mem=8GB
%nprocshared=4
# B3LYP/6-311++G(d,p) empiricaldispersion=gd3bj scf=xqc pop=npa geom=check

CID_103850413_JID_5655_Energie_kation

1 2

--Link1--
%chk=JID_5655.chk
%mem=8GB
%nprocshared=4
# B3LYP/6-311++G(d,p) empiricaldispersion=gd3bj scf=xqc pop=npa geom=check

CID_103850413_JID_5655_Energie_anion

-1 2
