%chk=JID_6101.chk
%mem=8GB
%nprocshared=4
# opt freq B3LYP/6-31G(d) empiricaldispersion=gd3bj scf=xqc

CID_104671527_JID_6101_neutraal

0 1
C          0.93379       -0.05842       -0.04694
C          0.63504       -1.54144        0.14652
C          0.97268       -2.05484        1.55930
C          0.16312       -1.36933        2.68833
N         -1.27270       -1.66087        2.61936
N          0.73368       -3.50488        1.63361
C          1.54657       -4.56467        1.32734
O          1.07586       -5.68863        1.18956
C          3.00121       -4.36291        1.19491
C          3.69928       -4.85513        0.10003
N          5.03352       -4.65776       -0.00294
N          5.71412       -3.98315        0.97848
C          5.06360       -3.53348        2.06937
C          3.70417       -3.73238        2.22181
C          5.87276       -2.85329        3.12651
C          3.05873       -5.63923       -1.00188
H          0.28714        0.56760        0.57415
H          0.76259        0.22435       -1.09065
H          1.97682        0.16552        0.19767
H         -0.41778       -1.73364       -0.09310
H          1.21923       -2.10941       -0.58894
H          2.03135       -1.85443        1.73762
H          0.53051       -1.74231        3.65219
H          0.32273       -0.28687        2.68686
H         -1.73640       -1.25422        3.43214
H         -1.68077       -1.20058        1.80608
H         -0.24610       -3.76158        1.72605
H          3.19403       -3.40461        3.12148
H          6.17804       -3.57654        3.88816
H          6.76953       -2.40042        2.69160
H          5.29622       -2.05440        3.60440
H          3.76492       -5.79751       -1.82414
H          2.74988       -6.62412       -0.63777
H          2.19218       -5.10879       -1.40752

--Link1--
%chk=JID_6101.chk
%mem=8GB
%nprocshared=4
# B3LYP/6-311++G(d,p) empiricaldispersion=gd3bj scf=xqc pop=npa geom=check

CID_104671527_JID_6101_Energie_neutraal

0 1

--Link1--
%chk=JID_6101.chk
%mem=8GB
%nprocshared=4
# B3LYP/6-311++G(d,p) empiricaldispersion=gd3bj scf=xqc pop=npa geom=check

CID_104671527_JID_6101_Energie_kation

1 2

--Link1--
%chk=JID_6101.chk
%mem=8GB
%nprocshared=4
# B3LYP/6-311++G(d,p) empiricaldispersion=gd3bj scf=xqc pop=npa geom=check

CID_104671527_JID_6101_Energie_anion

-1 2
