%chk=JID_1093.chk
%mem=8GB
%nprocshared=4
# opt freq B3LYP/6-31G(d) empiricaldispersion=gd3bj scf=xqc

CID_67960415_JID_1093_neutraal

0 1
C          1.09470       -0.02268       -0.02274
C          0.31925       -0.43779        0.98861
C         -1.12569       -0.81784        0.85560
N         -1.29734       -2.18308        1.28014
C         -1.70642       -2.49840        2.64803
N         -1.67396       -3.97497        2.61250
C         -1.13983       -4.39259        1.40098
C         -0.93700       -3.33503        0.60680
C         -1.59062       -4.72000        3.86290
C         -2.91986       -4.61554        4.61804
O         -3.99718       -5.00683        3.76698
H          0.71353        0.06200       -1.03561
H          2.13734        0.22863        0.14484
H          0.75192       -0.51605        1.98229
H         -1.73208       -0.14405        1.47204
H         -1.47427       -0.70194       -0.17753
H         -0.99213       -2.10112        3.37758
H         -2.71747       -2.13425        2.85598
H         -0.92627       -5.43337        1.20443
H         -0.52542       -3.30252       -0.39127
H         -1.40025       -5.77712        3.64099
H         -0.76392       -4.35364        4.48108
H         -2.91841       -5.26436        5.49863
H         -3.10750       -3.58849        4.94656
H         -3.71890       -4.73015        2.86746

--Link1--
%chk=JID_1093.chk
%mem=8GB
%nprocshared=4
# B3LYP/6-311++G(d,p) empiricaldispersion=gd3bj scf=xqc pop=npa geom=check

CID_67960415_JID_1093_Energie_neutraal

0 1

--Link1--
%chk=JID_1093.chk
%mem=8GB
%nprocshared=4
# B3LYP/6-311++G(d,p) empiricaldispersion=gd3bj scf=xqc pop=npa geom=check

CID_67960415_JID_1093_Energie_kation

1 2

--Link1--
%chk=JID_1093.chk
%mem=8GB
%nprocshared=4
# B3LYP/6-311++G(d,p) empiricaldispersion=gd3bj scf=xqc pop=npa geom=check

CID_67960415_JID_1093_Energie_anion

-1 2
