%chk=JID_735.chk
%mem=8GB
%nprocshared=4
# opt freq B3LYP/6-31G(d) empiricaldispersion=gd3bj scf=xqc

CID_21299748_JID_735_neutraal

0 1
C          1.09916        0.00964       -0.00857
C          0.57509        1.23111       -0.75003
C          1.20661        1.44721       -2.12687
O          0.56283        1.70511       -3.13989
O          2.57269        1.37839       -2.06749
O          3.09925        1.83769       -3.35874
O         -0.85123        1.17053       -0.81028
C          0.76099       -1.28504       -0.68938
O          0.29161       -2.27544       -0.15409
O          1.13982       -1.33151       -1.97979
H          0.63639       -0.02742        0.98535
H          2.18468        0.04753        0.13060
H          0.81492        2.12778       -0.16600
H          2.60212        1.21756       -3.92780
H         -1.12927        1.74756       -1.54970
H          0.88460       -2.23816       -2.26043

--Link1--
%chk=JID_735.chk
%mem=8GB
%nprocshared=4
# B3LYP/6-311++G(d,p) empiricaldispersion=gd3bj scf=xqc pop=npa geom=check

CID_21299748_JID_735_Energie_neutraal

0 1

--Link1--
%chk=JID_735.chk
%mem=8GB
%nprocshared=4
# B3LYP/6-311++G(d,p) empiricaldispersion=gd3bj scf=xqc pop=npa geom=check

CID_21299748_JID_735_Energie_kation

1 2

--Link1--
%chk=JID_735.chk
%mem=8GB
%nprocshared=4
# B3LYP/6-311++G(d,p) empiricaldispersion=gd3bj scf=xqc pop=npa geom=check

CID_21299748_JID_735_Energie_anion

-1 2
