%chk=JID_3137.chk
%mem=8GB
%nprocshared=4
# opt freq B3LYP/6-31G(d) empiricaldispersion=gd3bj scf=xqc

CID_118538171_JID_3137_neutraal

0 1
C          1.00954       -0.06338        0.07676
C          0.32331        1.29265        0.00888
C          0.56614        2.02653       -1.31296
C         -0.16192        1.42077       -2.51363
C         -1.65422        1.60466       -2.45146
N         -2.21115        2.73721       -2.13131
N         -3.56354        2.56712       -2.29991
C         -3.93569        1.31736       -2.79855
O         -5.05623        0.93206       -3.09317
C         -2.63500        0.52927       -2.87550
N         -2.68990       -0.58758       -1.91091
O         -1.54109       -1.43361       -2.16558
C         -4.47172        3.66533       -2.08835
H          0.62073       -0.75305       -0.67602
H          0.84787       -0.51701        1.05987
H          2.08907        0.03668       -0.07469
H         -0.75008        1.17346        0.19217
H          0.71371        1.91306        0.82473
H          0.26094        3.07277       -1.18827
H          1.64266        2.04345       -1.52291
H          0.17501        1.92966       -3.42509
H          0.09147        0.36645       -2.63654
H         -2.45266        0.21169       -3.90592
H         -2.53840       -0.23275       -0.96166
H         -1.95574       -2.31549       -2.26272
H         -4.29489        4.08827       -1.09585
H         -4.28545        4.42568       -2.85180
H         -5.50823        3.32631       -2.16311

--Link1--
%chk=JID_3137.chk
%mem=8GB
%nprocshared=4
# B3LYP/6-311++G(d,p) empiricaldispersion=gd3bj scf=xqc pop=npa geom=check

CID_118538171_JID_3137_Energie_neutraal

0 1

--Link1--
%chk=JID_3137.chk
%mem=8GB
%nprocshared=4
# B3LYP/6-311++G(d,p) empiricaldispersion=gd3bj scf=xqc pop=npa geom=check

CID_118538171_JID_3137_Energie_kation

1 2

--Link1--
%chk=JID_3137.chk
%mem=8GB
%nprocshared=4
# B3LYP/6-311++G(d,p) empiricaldispersion=gd3bj scf=xqc pop=npa geom=check

CID_118538171_JID_3137_Energie_anion

-1 2
