%chk=JID_7396.chk
%mem=8GB
%nprocshared=4
# opt freq B3LYP/6-31G(d) empiricaldispersion=gd3bj scf=xqc

CID_66128832_JID_7396_neutraal

0 1
C         -2.48100        0.63200       -0.02500
C         -1.19491       -0.10265       -0.06298
N         -0.14779        0.39706       -0.72497
N          0.83711       -0.49859       -0.51134
C          0.43713       -1.60067        0.20439
C         -0.87786       -1.33376        0.54790
C          1.30065       -2.69966        0.56234
O          2.50357       -2.54017        0.77606
N          0.78141       -3.95781        0.76970
C         -0.34197       -4.60977        0.23025
C         -1.03100       -4.17111       -0.90437
C         -2.12434       -4.89278       -1.39697
C         -2.51502       -6.06515       -0.76178
C         -1.82365       -6.53238        0.34721
C         -0.73171       -5.81107        0.83575
O         -3.57350       -6.79822       -1.20686
C          2.15005       -0.24195       -1.05918
H         -2.45739        1.39753        0.75692
H         -2.68224        1.12205       -0.98320
H         -3.31321       -0.04743        0.18540
H         -1.52397       -1.94967        1.15859
H          1.41163       -4.53293        1.31553
H         -0.72082       -3.28768       -1.45384
H         -2.64341       -4.52935       -2.27856
H         -2.13125       -7.45565        0.83024
H         -0.20450       -6.19285        1.70651
H         -3.95437       -6.35739       -1.98422
H          2.09385        0.59714       -1.75801
H          2.82240        0.00614       -0.23459
H          2.49129       -1.13355       -1.59070

--Link1--
%chk=JID_7396.chk
%mem=8GB
%nprocshared=4
# B3LYP/6-311++G(d,p) empiricaldispersion=gd3bj scf=xqc pop=npa geom=check

CID_66128832_JID_7396_Energie_neutraal

0 1

--Link1--
%chk=JID_7396.chk
%mem=8GB
%nprocshared=4
# B3LYP/6-311++G(d,p) empiricaldispersion=gd3bj scf=xqc pop=npa geom=check

CID_66128832_JID_7396_Energie_kation

1 2

--Link1--
%chk=JID_7396.chk
%mem=8GB
%nprocshared=4
# B3LYP/6-311++G(d,p) empiricaldispersion=gd3bj scf=xqc pop=npa geom=check

CID_66128832_JID_7396_Energie_anion

-1 2
