%chk=JID_5414.chk
%mem=8GB
%nprocshared=4
# opt freq B3LYP/6-31G(d) empiricaldispersion=gd3bj scf=xqc

CID_154454736_JID_5414_neutraal

0 1
C          1.04213       -0.01129        0.08999
O          1.98757        0.09005       -0.97020
C          1.96870        1.29182       -1.63032
C          0.75993        1.87583       -2.03601
C          0.75557        3.09345       -2.71272
C          1.95765        3.72828       -2.99748
C          3.16603        3.13806       -2.61841
C          3.20430        1.90060       -1.93734
C          4.53812        1.25168       -1.52804
N          5.71047        2.04924       -1.95501
O          6.91303        1.49549       -1.32181
O          4.63956        1.02585       -0.11055
C          4.40130        2.17622        0.69408
O          4.62672        0.04137       -2.29320
C          4.89351       -1.13585       -1.55166
H          1.36875       -0.82004        0.75080
H          0.05373       -0.27673       -0.29737
H          0.99365        0.90795        0.68463
H         -0.18857        1.38208       -1.84897
H         -0.18462        3.54062       -3.02420
H          1.96136        4.67879       -3.52520
H          4.08680        3.66368       -2.86471
H          5.84377        1.74964       -2.92303
H          6.56069        1.03407       -0.53102
H          5.03347        3.01849        0.39882
H          3.34755        2.46607        0.67172
H          4.64830        1.91490        1.72719
H          5.87005       -1.07840       -1.06265
H          4.11166       -1.33562       -0.81433
H          4.91763       -1.97669       -2.25077

--Link1--
%chk=JID_5414.chk
%mem=8GB
%nprocshared=4
# B3LYP/6-311++G(d,p) empiricaldispersion=gd3bj scf=xqc pop=npa geom=check

CID_154454736_JID_5414_Energie_neutraal

0 1

--Link1--
%chk=JID_5414.chk
%mem=8GB
%nprocshared=4
# B3LYP/6-311++G(d,p) empiricaldispersion=gd3bj scf=xqc pop=npa geom=check

CID_154454736_JID_5414_Energie_kation

1 2

--Link1--
%chk=JID_5414.chk
%mem=8GB
%nprocshared=4
# B3LYP/6-311++G(d,p) empiricaldispersion=gd3bj scf=xqc pop=npa geom=check

CID_154454736_JID_5414_Energie_anion

-1 2
