%chk=JID_6058.chk
%mem=8GB
%nprocshared=4
# opt freq B3LYP/6-31G(d) empiricaldispersion=gd3bj scf=xqc

CID_63814529_JID_6058_neutraal

0 1
C          2.49200        0.00400       -0.01400
C          0.98758        0.01631       -0.01350
C          0.23292       -1.16839       -0.12230
C         -1.16823       -1.07766       -0.11741
C         -1.81085        0.15916       -0.02405
C         -1.07526        1.34429        0.07681
C          0.32138        1.25524        0.08745
S         -2.00264        2.86129        0.24286
C         -0.85267        4.15871        0.10352
N         -0.81844        5.15250        0.99820
N          0.15405        5.93009        0.50446
C          0.67052        5.41176       -0.64758
N          0.04297        4.28978       -0.92665
C          1.75726        6.06273       -1.40625
C          0.86206       -2.53998       -0.20024
N          0.78879       -3.22369        1.08553
H          2.86869       -0.64018        0.78691
H          2.86705       -0.35042       -0.97927
H          2.90480        1.00454        0.15377
H         -1.76907       -1.98392       -0.17248
H         -2.89858        0.18198       -0.01820
H          0.92138        2.15661        0.17961
H          0.40555        6.78195        0.99346
H          1.47604        7.08199       -1.68853
H          2.67158        6.10758       -0.80647
H          1.97728        5.50443       -2.32122
H          0.34021       -3.13516       -0.95888
H          1.90455       -2.48351       -0.52775
H          1.33344       -4.08167        1.04112
H          1.22452       -2.63695        1.79536

--Link1--
%chk=JID_6058.chk
%mem=8GB
%nprocshared=4
# B3LYP/6-311++G(d,p) empiricaldispersion=gd3bj scf=xqc pop=npa geom=check

CID_63814529_JID_6058_Energie_neutraal

0 1

--Link1--
%chk=JID_6058.chk
%mem=8GB
%nprocshared=4
# B3LYP/6-311++G(d,p) empiricaldispersion=gd3bj scf=xqc pop=npa geom=check

CID_63814529_JID_6058_Energie_kation

1 2

--Link1--
%chk=JID_6058.chk
%mem=8GB
%nprocshared=4
# B3LYP/6-311++G(d,p) empiricaldispersion=gd3bj scf=xqc pop=npa geom=check

CID_63814529_JID_6058_Energie_anion

-1 2
