%chk=JID_7249.chk
%mem=8GB
%nprocshared=4
# opt freq B3LYP/6-31G(d) empiricaldispersion=gd3bj scf=xqc

CID_105839280_JID_7249_neutraal

0 1
C          1.00886       -0.07865       -0.06112
C          0.38145        1.30129       -0.33302
C          1.03856        1.92307       -1.56001
C          1.96405        2.97257       -1.42807
C          2.65306        3.49254       -2.52360
C          2.41056        2.99098       -3.79790
C          1.48265        1.96738       -3.97095
C          0.81186        1.44033       -2.86242
O         -0.09707        0.43251       -3.05660
O          2.23805        3.55707       -0.22266
N         -1.07370        1.10172       -0.45158
C         -1.99659        2.16299       -0.04839
C         -1.73445        2.68859        1.36791
C         -1.37130        4.06991        0.77915
C         -1.69206        3.54106       -0.63452
O         -0.00763        4.51429        0.98278
C          0.22996        5.20490        2.20607
H          0.82145       -0.79239       -0.87109
H          0.60734       -0.51097        0.86283
H          2.09527        0.00543        0.05897
H          0.60907        1.89562        0.55328
H          3.36897        4.29709       -2.37890
H          2.94035        3.40222       -4.65258
H          1.29698        1.59140       -4.97241
H         -0.06639        0.16234       -3.98961
H          1.37627        3.82180        0.16955
H         -1.24409        0.72580       -1.38948
H         -3.04292        1.86645       -0.19017
H         -2.63467        2.71803        1.99436
H         -0.95234        2.20507        1.96048
H         -2.07861        4.85568        1.07641
H         -0.88992        3.64009       -1.36546
H         -2.57435        4.02307       -1.07514
H         -0.04041        4.57241        3.05596
H          1.29363        5.44864        2.26566
H         -0.34822        6.13313        2.22811

--Link1--
%chk=JID_7249.chk
%mem=8GB
%nprocshared=4
# B3LYP/6-311++G(d,p) empiricaldispersion=gd3bj scf=xqc pop=npa geom=check

CID_105839280_JID_7249_Energie_neutraal

0 1

--Link1--
%chk=JID_7249.chk
%mem=8GB
%nprocshared=4
# B3LYP/6-311++G(d,p) empiricaldispersion=gd3bj scf=xqc pop=npa geom=check

CID_105839280_JID_7249_Energie_kation

1 2

--Link1--
%chk=JID_7249.chk
%mem=8GB
%nprocshared=4
# B3LYP/6-311++G(d,p) empiricaldispersion=gd3bj scf=xqc pop=npa geom=check

CID_105839280_JID_7249_Energie_anion

-1 2
