%chk=JID_3282.chk
%mem=8GB
%nprocshared=4
# opt freq B3LYP/6-31G(d) empiricaldispersion=gd3bj scf=xqc

CID_103452577_JID_3282_neutraal

0 1
C          0.99947       -0.05134        0.08581
C          0.26670       -0.98600        1.03894
C          0.89330       -1.04436        2.45540
C          0.84026        0.29486        3.15731
N         -0.40016        0.72564        3.55285
C         -0.43105        1.92748        4.17185
C          0.70891        2.68476        4.37360
N          1.93331        2.28079        3.96630
C          1.98289        1.07164        3.35773
O          3.18986        0.60267        2.88530
C          4.28925        1.45110        3.20253
O          0.15122       -1.99754        3.23802
O         -1.11964       -0.60788        1.07463
H          0.89494        0.99565        0.38895
H          0.56693       -0.12338       -0.91824
H          2.06306       -0.29991        0.02316
H          0.28213       -1.99823        0.61815
H          1.91658       -1.42720        2.39256
H         -1.40482        2.27069        4.50375
H          0.66774        3.64779        4.87030
H          4.40967        1.55780        4.28624
H          5.19638        0.97953        2.81232
H          4.18807        2.42844        2.71815
H         -0.68243       -1.54286        3.46941
H         -1.21735        0.09066        1.75267

--Link1--
%chk=JID_3282.chk
%mem=8GB
%nprocshared=4
# B3LYP/6-311++G(d,p) empiricaldispersion=gd3bj scf=xqc pop=npa geom=check

CID_103452577_JID_3282_Energie_neutraal

0 1

--Link1--
%chk=JID_3282.chk
%mem=8GB
%nprocshared=4
# B3LYP/6-311++G(d,p) empiricaldispersion=gd3bj scf=xqc pop=npa geom=check

CID_103452577_JID_3282_Energie_kation

1 2

--Link1--
%chk=JID_3282.chk
%mem=8GB
%nprocshared=4
# B3LYP/6-311++G(d,p) empiricaldispersion=gd3bj scf=xqc pop=npa geom=check

CID_103452577_JID_3282_Energie_anion

-1 2
