%chk=JID_9292.chk
%mem=8GB
%nprocshared=4
# opt freq B3LYP/6-31G(d) empiricaldispersion=gd3bj scf=xqc

CID_105277590_JID_9292_neutraal

0 1
C          2.49600       -0.00700       -0.12600
C          1.06288        0.11820        0.39255
C          0.31972        1.23084       -0.34586
C         -1.12372        1.31986        0.12498
C         -1.85077       -0.00784       -0.07847
C         -1.18057       -1.20473        0.66464
C          0.32771       -1.22973        0.26266
C         -1.89847       -2.54989        0.17472
C         -1.39769       -3.87336        0.83409
C         -1.94292       -4.44543        2.13005
C         -2.70200       -3.75014        3.07048
C         -3.10709       -4.39790        4.23179
N         -2.80850       -5.67896        4.52805
C         -2.07203       -6.34267        3.61676
C         -1.62269       -5.77923        2.43102
N         -3.38141       -2.42624        0.13454
N         -3.96212       -3.48622       -0.65769
O         -1.42694       -0.95387        2.06135
C         -0.46795       -1.38027        3.01636
H          2.51455       -0.27578       -1.18765
H          3.03546        0.93869       -0.00751
H          3.04374       -0.77624        0.42851
H          1.12572        0.40240        1.44736
H          0.81800        2.19263       -0.17541
H          0.34219        1.04858       -1.42782
H         -1.64137        2.10734       -0.43482
H         -1.15566        1.60846        1.18241
H         -1.90160       -0.21654       -1.15513
H         -2.87876        0.13240        0.27859
H          0.40353       -1.55500       -0.78431
H          0.87703       -1.97350        0.84906
H         -1.58946       -2.62999       -0.88000
H         -1.56780       -4.65678        0.07913
H         -0.30799       -3.82493        0.94081
H         -2.97652       -2.71080        2.94727
H         -3.69711       -3.87663        4.98043
H         -1.83935       -7.37305        3.86887
H         -1.02915       -6.37953        1.74823
H         -3.73905       -2.41515        1.09178
H         -4.98447       -3.47422       -0.58445
H         -3.77639       -3.33635       -1.65419
H         -0.09751       -2.38771        2.82391
H          0.36697       -0.68042        3.06718
H         -0.94757       -1.37313        3.99963

--Link1--
%chk=JID_9292.chk
%mem=8GB
%nprocshared=4
# B3LYP/6-311++G(d,p) empiricaldispersion=gd3bj scf=xqc pop=npa geom=check

CID_105277590_JID_9292_Energie_neutraal

0 1

--Link1--
%chk=JID_9292.chk
%mem=8GB
%nprocshared=4
# B3LYP/6-311++G(d,p) empiricaldispersion=gd3bj scf=xqc pop=npa geom=check

CID_105277590_JID_9292_Energie_kation

1 2

--Link1--
%chk=JID_9292.chk
%mem=8GB
%nprocshared=4
# B3LYP/6-311++G(d,p) empiricaldispersion=gd3bj scf=xqc pop=npa geom=check

CID_105277590_JID_9292_Energie_anion

-1 2
