%chk=JID_5119.chk
%mem=8GB
%nprocshared=4
# opt freq B3LYP/6-31G(d) empiricaldispersion=gd3bj scf=xqc

CID_140152237_JID_5119_neutraal

0 1
C          0.98818        0.08973        0.04254
O          0.41290        0.69095        1.19579
C          0.92121        2.00837        1.40483
C          0.39550        2.54394        2.73335
C          0.84848        1.69652        3.92223
N          2.28151        1.81862        4.10590
C          3.09085        0.93469        4.77332
N          4.18267        1.46470        5.26557
N          4.98514        0.58039        5.91591
C          6.17998        0.88565        6.50796
C          6.63944       -0.29610        7.03920
N          5.76233       -1.32252        6.79137
C          4.77681       -0.77175        6.11222
C          3.59920       -1.31933        5.56827
C          2.75507       -0.51990        4.90487
H          0.54676       -0.90236       -0.08444
H          2.06917       -0.02325        0.16951
H          0.77244        0.68608       -0.84921
H          2.01718        1.99570        1.39994
H          0.57793        2.65481        0.58906
H          0.71971        3.58319        2.86175
H         -0.70103        2.53818        2.71033
H          0.34814        2.05121        4.83032
H          0.54026        0.65863        3.76967
H          2.61136        2.77247        4.22828
H          6.57705        1.88848        6.49206
H          7.55783       -0.46324        7.58696
H          3.40939       -2.37882        5.68822
H          1.85400       -0.90419        4.45035

--Link1--
%chk=JID_5119.chk
%mem=8GB
%nprocshared=4
# B3LYP/6-311++G(d,p) empiricaldispersion=gd3bj scf=xqc pop=npa geom=check

CID_140152237_JID_5119_Energie_neutraal

0 1

--Link1--
%chk=JID_5119.chk
%mem=8GB
%nprocshared=4
# B3LYP/6-311++G(d,p) empiricaldispersion=gd3bj scf=xqc pop=npa geom=check

CID_140152237_JID_5119_Energie_kation

1 2

--Link1--
%chk=JID_5119.chk
%mem=8GB
%nprocshared=4
# B3LYP/6-311++G(d,p) empiricaldispersion=gd3bj scf=xqc pop=npa geom=check

CID_140152237_JID_5119_Energie_anion

-1 2
