%chk=JID_8824.chk
%mem=8GB
%nprocshared=4
# opt freq B3LYP/6-31G(d) empiricaldispersion=gd3bj scf=xqc

CID_105920056_JID_8824_neutraal

0 1
C          0.90136        0.01186       -0.01141
C          0.83170       -1.03088       -1.11672
C          1.28596       -2.37909       -0.65568
C          2.49766       -2.76230       -0.11940
N          2.62715       -4.10425        0.17607
C          1.51938       -4.74917       -0.13904
S          0.27004       -3.75209       -0.78446
C          1.38243       -6.24212        0.01466
N          0.01428       -6.70582        0.10224
C         -0.87967       -7.14249       -0.78696
O         -1.99902       -7.45157       -0.37315
N         -0.64615       -7.26253       -2.09761
C          0.49553       -7.03301       -2.96141
C          1.37296       -8.27819       -3.10555
C          0.66634       -9.43894       -3.80659
C          0.30069       -9.09107       -5.22289
O          0.99494       -8.48972       -6.02383
O         -0.92897       -9.51882       -5.56080
H          0.28806       -0.28042        0.84779
H          0.53605        0.97647       -0.37810
H          1.92865        0.15388        0.34068
H         -0.19685       -1.07349       -1.49496
H          1.46158       -0.71189       -1.95579
H          3.33287       -2.09943        0.07341
H          1.92555       -6.76281       -0.77256
H          1.85588       -6.52974        0.96113
H         -0.40451       -6.63828        1.02062
H         -1.47968       -7.60902       -2.55892
H          0.09521       -6.72627       -3.93357
H          1.08085       -6.19022       -2.59646
H          2.27449       -8.00612       -3.66783
H          1.70214       -8.62138       -2.11810
H          1.32189      -10.31590       -3.84041
H         -0.23405       -9.72378       -3.25140
H         -1.03738       -9.23916       -6.49431

--Link1--
%chk=JID_8824.chk
%mem=8GB
%nprocshared=4
# B3LYP/6-311++G(d,p) empiricaldispersion=gd3bj scf=xqc pop=npa geom=check

CID_105920056_JID_8824_Energie_neutraal

0 1

--Link1--
%chk=JID_8824.chk
%mem=8GB
%nprocshared=4
# B3LYP/6-311++G(d,p) empiricaldispersion=gd3bj scf=xqc pop=npa geom=check

CID_105920056_JID_8824_Energie_kation

1 2

--Link1--
%chk=JID_8824.chk
%mem=8GB
%nprocshared=4
# B3LYP/6-311++G(d,p) empiricaldispersion=gd3bj scf=xqc pop=npa geom=check

CID_105920056_JID_8824_Energie_anion

-1 2
