%chk=JID_9141.chk
%mem=8GB
%nprocshared=4
# opt freq B3LYP/6-31G(d) empiricaldispersion=gd3bj scf=xqc

CID_61619592_JID_9141_neutraal

0 1
C          0.95644        0.07724       -0.04622
C         -0.20579        0.93218        0.45155
C         -0.29247        2.32212       -0.22197
C         -0.56658        2.30583       -1.79609
C         -0.34985        3.68713       -2.50196
C         -1.31874        4.16363       -3.41645
C         -1.21112        5.39556       -4.06551
C         -0.10511        6.19577       -3.83878
C          0.90491        5.73367       -3.00409
C          0.82475        4.47401       -2.36668
C          2.04488        4.06329       -1.58769
N         -1.82261        1.64594       -2.26127
C         -1.65814        0.24551       -2.63550
C         -3.06715       -0.15171       -3.01705
C         -3.95019        0.62780       -2.05560
C         -3.05261        1.73158       -1.45306
C         -3.79576        3.08383       -1.46451
O         -4.94275        3.06270       -0.61075
N         -1.22472        3.16616        0.54573
H          0.86840       -0.16567       -1.10737
H          0.99141       -0.86540        0.50944
H          1.90978        0.59320        0.10701
H         -1.13956        0.37310        0.34516
H         -0.06278        1.06876        1.53231
H          0.68452        2.76807       -0.04575
H          0.25505        1.71937       -2.23171
H         -2.18943        3.56124       -3.66253
H         -1.99129        5.71836       -4.74847
H         -0.01462        7.15850       -4.33245
H          1.78747        6.35821       -2.86853
H          2.94976        4.50568       -2.02110
H          1.96950        4.41118       -0.55302
H          2.19855        2.98130       -1.61970
H         -1.31668       -0.37407       -1.80206
H         -0.97226        0.11495       -3.47850
H         -3.28275        0.15538       -4.04797
H         -3.23138       -1.23109       -2.94582
H         -4.82186        1.01850       -2.59203
H         -4.31661       -0.03149       -1.25975
H         -2.88292        1.43461       -0.41387
H         -3.15829        3.89931       -1.11833
H         -4.14127        3.34130       -2.47151
H         -5.57498        2.42754       -0.98400
H         -0.88546        3.28764        1.49794
H         -1.24990        4.09742        0.12687

--Link1--
%chk=JID_9141.chk
%mem=8GB
%nprocshared=4
# B3LYP/6-311++G(d,p) empiricaldispersion=gd3bj scf=xqc pop=npa geom=check

CID_61619592_JID_9141_Energie_neutraal

0 1

--Link1--
%chk=JID_9141.chk
%mem=8GB
%nprocshared=4
# B3LYP/6-311++G(d,p) empiricaldispersion=gd3bj scf=xqc pop=npa geom=check

CID_61619592_JID_9141_Energie_kation

1 2

--Link1--
%chk=JID_9141.chk
%mem=8GB
%nprocshared=4
# B3LYP/6-311++G(d,p) empiricaldispersion=gd3bj scf=xqc pop=npa geom=check

CID_61619592_JID_9141_Energie_anion

-1 2
