%chk=JID_7156.chk
%mem=8GB
%nprocshared=4
# opt freq B3LYP/6-31G(d) empiricaldispersion=gd3bj scf=xqc

CID_103024011_JID_7156_neutraal

0 1
C         -2.13100       -0.04600       -0.06100
N         -0.75548       -0.17120        0.35173
C          0.17506       -1.03248       -0.14958
C          1.37287       -0.70254        0.45167
C          1.02718        0.32780        1.35708
N         -0.26386        0.65850        1.28681
C          2.72270       -1.27689        0.19128
C          3.20550       -1.05322       -1.23950
C          3.70855        0.36003       -1.45761
O          4.89886        0.61774       -1.26228
C          2.72833        1.44150       -1.87722
C          2.28595        1.43265       -3.35024
C          1.24309        0.32788       -3.72367
C          0.45021        1.39219       -4.50129
C          1.12881        2.45643       -3.62239
C          3.46254        1.50816       -4.34016
N          4.20257        2.75489       -4.19132
H         -2.76644       -0.10289        0.82634
H         -2.25292        0.91826       -0.56062
H         -2.38015       -0.85829       -0.74824
H         -0.07516       -1.76337       -0.90593
H          1.66914        0.86666        2.04325
H          3.44640       -0.85956        0.90246
H          2.67735       -2.35592        0.38539
H          4.05337       -1.72169       -1.43692
H          2.44679       -1.30689       -1.98229
H          1.85785        1.39025       -1.21836
H          3.19852        2.40518       -1.64074
H          1.61277       -0.50991       -4.32169
H          0.67449       -0.07283       -2.87789
H         -0.63756        1.32932       -4.41198
H          0.71333        1.45754       -5.56259
H          0.53558        2.71745       -2.73667
H          1.39273        3.38364       -4.13770
H          4.14263        0.66464       -4.17810
H          3.11548        1.43148       -5.37681
H          5.04702        2.72171       -4.76145
H          3.65259        3.53651       -4.54345

--Link1--
%chk=JID_7156.chk
%mem=8GB
%nprocshared=4
# B3LYP/6-311++G(d,p) empiricaldispersion=gd3bj scf=xqc pop=npa geom=check

CID_103024011_JID_7156_Energie_neutraal

0 1

--Link1--
%chk=JID_7156.chk
%mem=8GB
%nprocshared=4
# B3LYP/6-311++G(d,p) empiricaldispersion=gd3bj scf=xqc pop=npa geom=check

CID_103024011_JID_7156_Energie_kation

1 2

--Link1--
%chk=JID_7156.chk
%mem=8GB
%nprocshared=4
# B3LYP/6-311++G(d,p) empiricaldispersion=gd3bj scf=xqc pop=npa geom=check

CID_103024011_JID_7156_Energie_anion

-1 2
