%chk=JID_4459.chk
%mem=8GB
%nprocshared=4
# opt freq B3LYP/6-31G(d) empiricaldispersion=gd3bj scf=xqc

CID_106281874_JID_4459_neutraal

0 1
C          0.98104       -0.04869        0.08526
C          0.72812       -1.53612        0.34777
C          1.26465       -1.91635        1.69463
N          0.58835       -2.21995        2.78702
C          1.56992       -2.49605        3.69475
N          2.81737       -2.39403        3.23179
N          2.60155       -2.01833        1.96179
N         -0.72061       -1.74617        0.27977
C         -1.15154       -2.97743       -0.38703
C         -0.96296       -4.31184        0.35903
C          0.42931       -4.91866        0.27954
C          0.14008       -6.38704        0.46965
C         -1.15406       -6.55553       -0.29171
O         -1.84354       -5.30073       -0.22593
H          0.51093        0.58537        0.84689
H          0.58871        0.24930       -0.89386
H          2.05419        0.17445        0.09040
H          1.24531       -2.10891       -0.43170
H          1.36887       -2.78265        4.71928
H          3.39270       -1.85443        1.34934
H         -1.08605       -1.73577        1.23787
H         -2.22713       -2.85899       -0.57337
H         -0.71332       -3.03937       -1.39154
H         -1.27615       -4.20472        1.40495
H          0.87231       -4.75626       -0.71021
H          1.12010       -4.53941        1.03276
H          0.93658       -7.04276        0.10842
H         -0.02103       -6.59852        1.53346
H         -0.96693       -6.77716       -1.34765
H         -1.78558       -7.34604        0.12334

--Link1--
%chk=JID_4459.chk
%mem=8GB
%nprocshared=4
# B3LYP/6-311++G(d,p) empiricaldispersion=gd3bj scf=xqc pop=npa geom=check

CID_106281874_JID_4459_Energie_neutraal

0 1

--Link1--
%chk=JID_4459.chk
%mem=8GB
%nprocshared=4
# B3LYP/6-311++G(d,p) empiricaldispersion=gd3bj scf=xqc pop=npa geom=check

CID_106281874_JID_4459_Energie_kation

1 2

--Link1--
%chk=JID_4459.chk
%mem=8GB
%nprocshared=4
# B3LYP/6-311++G(d,p) empiricaldispersion=gd3bj scf=xqc pop=npa geom=check

CID_106281874_JID_4459_Energie_anion

-1 2
