%chk=JID_9865.chk
%mem=8GB
%nprocshared=4
# opt freq B3LYP/6-31G(d) empiricaldispersion=gd3bj scf=xqc

CID_73952186_JID_9865_neutraal

0 1
C          0.92646       -0.05481        0.03983
C          1.04773       -1.14475        1.08535
O          1.73529       -0.60231        2.21810
C          1.65582       -1.36898        3.33144
O          1.07739       -2.44057        3.44858
C          2.30684       -0.66417        4.45484
C          1.56211       -0.24201        5.49447
C          0.14718       -0.32264        5.48561
N         -0.69268        0.60492        5.06985
C         -1.94639        0.07056        5.20054
C         -1.86883       -1.19195        5.72904
N         -0.53272       -1.44808        5.92906
C          0.05414       -2.66351        6.45208
N         -2.94184       -2.08102        6.01433
O         -4.06143       -1.73351        5.62181
O         -2.68748       -3.11352        6.64293
C          3.78225       -0.46901        4.41351
O          4.47250       -1.15546        3.66034
C          4.42334        0.54736        5.32475
H          0.36902        0.79981        0.43742
H          0.41510       -0.42540       -0.85296
H          1.91571        0.31639       -0.24772
H          0.04568       -1.48724        1.36849
H          1.62452       -1.98604        0.68640
H          1.99907        0.27572        6.34087
H         -2.83076        0.62372        4.90805
H         -0.29166       -2.80002        7.47978
H         -0.24596       -3.49969        5.81558
H          1.14345       -2.59751        6.45979
H          3.87006        1.48996        5.29908
H          4.47270        0.15580        6.34389
H          5.44033        0.75211        4.97598

--Link1--
%chk=JID_9865.chk
%mem=8GB
%nprocshared=4
# B3LYP/6-311++G(d,p) empiricaldispersion=gd3bj scf=xqc pop=npa geom=check

CID_73952186_JID_9865_Energie_neutraal

0 1

--Link1--
%chk=JID_9865.chk
%mem=8GB
%nprocshared=4
# B3LYP/6-311++G(d,p) empiricaldispersion=gd3bj scf=xqc pop=npa geom=check

CID_73952186_JID_9865_Energie_kation

1 2

--Link1--
%chk=JID_9865.chk
%mem=8GB
%nprocshared=4
# B3LYP/6-311++G(d,p) empiricaldispersion=gd3bj scf=xqc pop=npa geom=check

CID_73952186_JID_9865_Energie_anion

-1 2
