%chk=JID_3121.chk
%mem=8GB
%nprocshared=4
# opt=(cartesian,calcfc) freq B3LYP/6-31G(d) empiricaldispersion=gd3bj scf=xqc

CID_12713373_JID_3121_neutraal

0 1
6	3.908768	 0.473770	 -0.341210
7	2.595904	 0.614811	 -0.946854
6	1.860742	 -0.627297	 -1.111395
6	1.636577	 -1.492866	 0.147411
6	0.958230	 -0.746043	 1.299126
7	-0.382407	 -0.258952	 0.969016
6	-1.463116	 -1.244262	 0.902302
6	-2.037700	 -1.482287	 -0.502129
6	-3.029501	 -0.406619	 -0.958476
6	-2.463222	 1.015638	 -1.007285
6	-1.960700	 1.540609	 0.353442
6	-0.557570	 1.071969	 0.708790
8	0.377419	 1.877469	 0.732219
1	4.496764	 -0.265961	 -0.898418
1	3.912896	 0.153976	 0.722218
1	4.436867	 1.433376	 -0.393701
1	2.026003	 1.283257	 -0.430784
1	0.889578	 -0.375428	 -1.553347
1	2.390397	 -1.247579	 -1.849201
1	1.042606	 -2.375506	 -0.132136
1	2.597276	 -1.873405	 0.516061
1	0.879906	 -1.395313	 2.180465
1	1.547659	 0.128880	 1.578921
1	-2.269940	 -0.959967	 1.590189
1	-1.045949	 -2.179661	 1.285159
1	-2.548810	 -2.453780	 -0.497761
1	-1.208590	 -1.565809	 -1.215411
1	-3.890996	 -0.417687	 -0.276689
1	-3.418396	 -0.675841	 -1.949761
1	-3.249303	 1.690012	 -1.366684
1	-1.649311	 1.074846	 -1.740256
1	-2.671267	 1.263432	 1.141521
1	-1.896265	 2.631719	 0.333274

--Link1--
%chk=JID_3121.chk
%mem=8GB
%nprocshared=4
# B3LYP/6-311++G(d,p) empiricaldispersion=gd3bj scf=xqc pop=npa geom=check

CID_12713373_JID_3121_Energie_neutraal

0 1

--Link1--
%chk=JID_3121.chk
%mem=8GB
%nprocshared=4
# B3LYP/6-311++G(d,p) empiricaldispersion=gd3bj scf=xqc pop=npa geom=check

CID_12713373_JID_3121_Energie_kation

1 2

--Link1--
%chk=JID_3121.chk
%mem=8GB
%nprocshared=4
# B3LYP/6-311++G(d,p) empiricaldispersion=gd3bj scf=xqc pop=npa geom=check

CID_12713373_JID_3121_Energie_anion

-1 2
