%chk=JID_3581.chk
%mem=8GB
%nprocshared=4
# opt freq B3LYP/6-31G(d) empiricaldispersion=gd3bj scf=xqc

CID_114974036_JID_3581_neutraal

0 1
C          1.02180        0.03434       -0.09135
C          0.36438        1.33196       -0.53821
C         -1.04394        1.51570        0.03127
C         -1.00663        2.91110        0.65269
C          0.26405        3.52901        0.11899
O          1.15728        2.43282       -0.06810
C         -2.19995        1.38163       -0.95867
O         -3.28610        1.91980       -0.71985
C         -2.05841        0.50495       -2.18681
C         -2.08547        1.24380       -3.52030
C         -3.33652        2.08378       -3.90303
C         -2.37806        3.04121       -4.64074
C         -1.26670        2.55395       -3.68884
H          0.45381       -0.83897       -0.42428
H          1.11604       -0.00145        0.99965
H          2.03817       -0.03475       -0.49382
H          0.38670        1.38556       -1.63040
H         -1.24938        0.77335        0.81320
H         -0.92874        2.81204        1.74190
H         -1.87160        3.54733        0.44371
H          0.70326        4.25415        0.80946
H          0.10309        4.01730       -0.84823
H         -1.14857       -0.09675       -2.11543
H         -2.87719       -0.22502       -2.15494
H         -1.84703        0.52320       -4.31884
H         -4.07166        1.57506       -4.53214
H         -3.86079        2.56119       -3.06940
H         -2.62597        4.10367       -4.57545
H         -2.20936        2.77576       -5.69028
H         -1.17858        3.16827       -2.78672
H         -0.27619        2.44025       -4.13674

--Link1--
%chk=JID_3581.chk
%mem=8GB
%nprocshared=4
# B3LYP/6-311++G(d,p) empiricaldispersion=gd3bj scf=xqc pop=npa geom=check

CID_114974036_JID_3581_Energie_neutraal

0 1

--Link1--
%chk=JID_3581.chk
%mem=8GB
%nprocshared=4
# B3LYP/6-311++G(d,p) empiricaldispersion=gd3bj scf=xqc pop=npa geom=check

CID_114974036_JID_3581_Energie_kation

1 2

--Link1--
%chk=JID_3581.chk
%mem=8GB
%nprocshared=4
# B3LYP/6-311++G(d,p) empiricaldispersion=gd3bj scf=xqc pop=npa geom=check

CID_114974036_JID_3581_Energie_anion

-1 2
