%chk=JID_2647.chk
%mem=8GB
%nprocshared=4
# opt freq B3LYP/6-31G(d) empiricaldispersion=gd3bj scf=xqc

CID_130669264_JID_2647_neutraal

0 1
C          1.04542       -0.02507       -0.08549
N         -0.02838       -0.25344       -1.02585
C         -0.45425       -1.42177       -1.53591
S         -1.17944       -1.42217       -3.03870
N         -0.33306       -2.59102       -0.88400
C         -0.20164       -2.88330        0.53642
C         -1.54413       -2.95601        1.29221
C         -2.47281       -4.02776        0.69529
C         -3.74787       -4.23074        1.51371
C         -4.59384       -2.96992        1.63091
S         -3.68772       -1.63026        2.45408
C         -2.22714       -1.58693        1.36948
H          0.62917        0.04008        0.92184
H          1.51562        0.93083       -0.33198
H          1.79184       -0.82007       -0.15361
H         -0.22874        0.52723       -1.64187
H         -0.67457       -3.36533       -1.44352
H          0.29750       -3.85770        0.59586
H          0.45552       -2.16618        1.02545
H         -1.29188       -3.26705        2.31660
H         -2.75107       -3.76124       -0.33185
H         -1.93865       -4.98425        0.63960
H         -4.34918       -5.01371        1.03584
H         -3.49035       -4.60630        2.51227
H         -4.91684       -2.62520        0.64288
H         -5.49518       -3.18167        2.21480
H         -1.53970       -0.84013        1.77852
H         -2.54995       -1.23804        0.38405

--Link1--
%chk=JID_2647.chk
%mem=8GB
%nprocshared=4
# B3LYP/6-311++G(d,p) empiricaldispersion=gd3bj scf=xqc pop=npa geom=check

CID_130669264_JID_2647_Energie_neutraal

0 1

--Link1--
%chk=JID_2647.chk
%mem=8GB
%nprocshared=4
# B3LYP/6-311++G(d,p) empiricaldispersion=gd3bj scf=xqc pop=npa geom=check

CID_130669264_JID_2647_Energie_kation

1 2

--Link1--
%chk=JID_2647.chk
%mem=8GB
%nprocshared=4
# B3LYP/6-311++G(d,p) empiricaldispersion=gd3bj scf=xqc pop=npa geom=check

CID_130669264_JID_2647_Energie_anion

-1 2
