%chk=JID_8688.chk
%mem=8GB
%nprocshared=4
# opt freq B3LYP/6-31G(d) empiricaldispersion=gd3bj scf=xqc

CID_106027344_JID_8688_neutraal

0 1
C          0.95406       -0.06921       -0.05567
C          0.84071       -1.10218        1.05648
N          2.14085       -1.27839        1.69816
C          2.08259       -2.14656        2.87045
C          1.98815       -3.65018        2.57425
C          3.23239       -4.21061        1.87222
C          3.31917       -5.73468        1.93395
S          2.57533       -6.59394        0.55380
O          3.18390       -6.11124       -0.66309
O          2.53999       -8.00393        0.87501
N          0.96798       -6.07123        0.62459
C          0.05869       -6.53235       -0.47374
C          0.30439       -5.79593       -1.79287
C         -0.01609       -4.30687       -1.70119
C         -1.44911       -4.07366       -1.23129
C         -1.74828       -4.80239        0.08490
C         -1.39351       -6.29695       -0.01564
C         -3.21414       -4.62240        0.47674
H          1.28301        0.89956        0.33531
H         -0.01884        0.07371       -0.53693
H          1.66573       -0.39011       -0.82395
H          0.09936       -0.75061        1.78301
H          0.48162       -2.04630        0.63600
H          2.81932       -1.62535        1.02157
H          2.98848       -1.96561        3.46151
H          1.24724       -1.85000        3.51681
H          1.85640       -4.16485        3.53436
H          1.09019       -3.85825        1.98634
H          3.27912       -3.85498        0.83747
H          4.11666       -3.81243        2.38583
H          4.37357       -6.03503        1.90871
H          2.88528       -6.13917        2.85381
H          0.58693       -6.37375        1.52452
H          0.19893       -7.61116       -0.61222
H         -0.33492       -6.24343       -2.56578
H          1.32850       -5.92725       -2.14871
H          0.12513       -3.84120       -2.68324
H          0.68567       -3.81782       -1.01601
H         -2.14113       -4.41726       -2.01103
H         -1.61915       -2.99716       -1.11024
H         -1.13781       -4.34841        0.87586
H         -1.56386       -6.78033        0.95488
H         -2.07099       -6.78411       -0.72959
H         -3.42156       -5.10773        1.43619
H         -3.46058       -3.56022        0.57842
H         -3.88389       -5.05526       -0.27402

--Link1--
%chk=JID_8688.chk
%mem=8GB
%nprocshared=4
# B3LYP/6-311++G(d,p) empiricaldispersion=gd3bj scf=xqc pop=npa geom=check

CID_106027344_JID_8688_Energie_neutraal

0 1

--Link1--
%chk=JID_8688.chk
%mem=8GB
%nprocshared=4
# B3LYP/6-311++G(d,p) empiricaldispersion=gd3bj scf=xqc pop=npa geom=check

CID_106027344_JID_8688_Energie_kation

1 2

--Link1--
%chk=JID_8688.chk
%mem=8GB
%nprocshared=4
# B3LYP/6-311++G(d,p) empiricaldispersion=gd3bj scf=xqc pop=npa geom=check

CID_106027344_JID_8688_Energie_anion

-1 2
