%chk=JID_4913.chk
%mem=8GB
%nprocshared=4
# opt freq B3LYP/6-31G(d) empiricaldispersion=gd3bj scf=xqc

CID_116654244_JID_4913_neutraal

0 1
C          0.96018        0.03376       -0.08529
C          0.37334       -0.57037        1.18581
C          1.00236       -0.02246        2.46237
O         -1.06926       -0.49786        1.20606
C         -1.69070        0.70911        1.25898
O         -1.10705        1.78315        1.30535
N         -3.07625        0.58814        1.26099
C         -3.70846       -0.65609        0.85732
C         -3.83485        1.82192        1.05780
C         -3.74323        2.89979        2.15853
O         -3.76575        4.09161        1.82850
N         -3.80149        2.52560        3.49611
C         -4.08374        1.18471        3.97375
C         -3.53445        3.52673        4.51461
H          0.84643        1.12141       -0.11323
H          0.44967       -0.36414       -0.96864
H          2.02803       -0.19288       -0.16623
H          0.59062       -1.64508        1.15925
H          0.91565        1.06581        2.53058
H          0.50579       -0.44034        3.34434
H          2.06699       -0.27329        2.50796
H         -4.73948       -0.68189        1.22086
H         -3.69869       -0.71691       -0.23499
H         -3.17892       -1.51989        1.26815
H         -3.49338        2.26748        0.11540
H         -4.89830        1.57809        0.95124
H         -3.13888        0.65374        4.11704
H         -4.61366        1.24201        4.92982
H         -4.72178        0.64404        3.27346
H         -3.20292        4.47657        4.08727
H         -4.45034        3.69487        5.08888
H         -2.75051        3.15204        5.17989

--Link1--
%chk=JID_4913.chk
%mem=8GB
%nprocshared=4
# B3LYP/6-311++G(d,p) empiricaldispersion=gd3bj scf=xqc pop=npa geom=check

CID_116654244_JID_4913_Energie_neutraal

0 1

--Link1--
%chk=JID_4913.chk
%mem=8GB
%nprocshared=4
# B3LYP/6-311++G(d,p) empiricaldispersion=gd3bj scf=xqc pop=npa geom=check

CID_116654244_JID_4913_Energie_kation

1 2

--Link1--
%chk=JID_4913.chk
%mem=8GB
%nprocshared=4
# B3LYP/6-311++G(d,p) empiricaldispersion=gd3bj scf=xqc pop=npa geom=check

CID_116654244_JID_4913_Energie_anion

-1 2
