%chk=JID_4614.chk
%mem=8GB
%nprocshared=4
# opt freq B3LYP/6-31G(d) empiricaldispersion=gd3bj scf=xqc

CID_17330450_JID_4614_neutraal

0 1
C          0.98183        0.09151       -0.03599
C          0.65717       -1.03529        0.94544
C          1.29299       -0.84816        2.33863
C          0.89058        0.40387        3.10508
C          2.04042        0.54120        4.07295
C          3.22171        0.12641        3.22140
O          2.73081       -0.80465        2.24454
N         -0.79298       -1.19323        1.04555
C         -1.64501       -2.19519        0.71083
O         -2.84016       -1.96623        0.92717
C         -1.18103       -3.53644        0.10678
C         -0.50940       -3.33423       -1.25864
C         -0.27449       -4.30273        1.07966
C         -2.43551       -4.41244       -0.13153
H          0.51420        1.03672        0.25737
H          0.60252       -0.15339       -1.03467
H          2.06152        0.25005       -0.11871
H          1.09910       -1.93530        0.52218
H          1.05149       -1.72773        2.95118
H          0.86005        1.28720        2.45922
H         -0.07926        0.30657        3.60075
H          2.14759        1.54600        4.48992
H          1.91297       -0.16211        4.90444
H          3.64131        0.98203        2.68197
H          4.01781       -0.34079        3.80790
H         -1.30752       -0.39743        1.40666
H          0.47611       -2.87092       -1.18830
H         -0.36770       -4.29144       -1.77389
H         -1.12160       -2.69403       -1.90437
H         -0.73640       -4.37170        2.07143
H         -0.08941       -5.32326        0.72476
H          0.70273       -3.83566        1.21398
H         -2.97460       -4.59987        0.80468
H         -3.13472       -3.92681       -0.82266
H         -2.16855       -5.38538       -0.56009

--Link1--
%chk=JID_4614.chk
%mem=8GB
%nprocshared=4
# B3LYP/6-311++G(d,p) empiricaldispersion=gd3bj scf=xqc pop=npa geom=check

CID_17330450_JID_4614_Energie_neutraal

0 1

--Link1--
%chk=JID_4614.chk
%mem=8GB
%nprocshared=4
# B3LYP/6-311++G(d,p) empiricaldispersion=gd3bj scf=xqc pop=npa geom=check

CID_17330450_JID_4614_Energie_kation

1 2

--Link1--
%chk=JID_4614.chk
%mem=8GB
%nprocshared=4
# B3LYP/6-311++G(d,p) empiricaldispersion=gd3bj scf=xqc pop=npa geom=check

CID_17330450_JID_4614_Energie_anion

-1 2
