%chk=JID_6410.chk
%mem=8GB
%nprocshared=4
# opt freq B3LYP/6-31G(d) empiricaldispersion=gd3bj scf=xqc

CID_72819977_JID_6410_neutraal

0 1
C          0.99522        0.07125       -0.07000
C         -0.49404       -0.10964        0.20892
C         -1.29667        1.14833       -0.08466
N         -1.36164        1.41565       -1.51494
C         -1.62755        0.38653       -2.39011
O         -1.92081        0.55073       -3.57083
N         -1.53858       -0.87450       -1.86695
C         -1.04255       -1.22925       -0.64063
O         -0.97551       -2.40832       -0.30039
C         -1.56115        2.79611       -1.95586
C         -2.91022        3.36997       -1.50807
O         -3.16272        3.54803       -0.31279
N         -3.86854        3.68651       -2.42256
C         -4.03395        3.18345       -3.78091
C         -4.91557        1.92365       -3.81762
N         -6.21069        2.14491       -3.16103
H          1.40846        0.88424        0.53575
H          1.19307        0.29563       -1.12370
H          1.54521       -0.84444        0.17382
H         -0.63446       -0.37697        1.26292
H         -2.32690        1.02914        0.27289
H         -0.85013        2.00958        0.42480
H         -1.79041       -1.63180       -2.48426
H         -0.77472        3.41081       -1.50178
H         -1.42273        2.87677       -3.03485
H         -4.71344        4.05186       -1.99899
H         -4.51274        3.98705       -4.35170
H         -3.06766        2.97836       -4.24366
H         -5.08401        1.63003       -4.85883
H         -4.41714        1.09261       -3.31068
H         -6.77478        1.30012       -3.25719
H         -6.05203        2.25120       -2.15827

--Link1--
%chk=JID_6410.chk
%mem=8GB
%nprocshared=4
# B3LYP/6-311++G(d,p) empiricaldispersion=gd3bj scf=xqc pop=npa geom=check

CID_72819977_JID_6410_Energie_neutraal

0 1

--Link1--
%chk=JID_6410.chk
%mem=8GB
%nprocshared=4
# B3LYP/6-311++G(d,p) empiricaldispersion=gd3bj scf=xqc pop=npa geom=check

CID_72819977_JID_6410_Energie_kation

1 2

--Link1--
%chk=JID_6410.chk
%mem=8GB
%nprocshared=4
# B3LYP/6-311++G(d,p) empiricaldispersion=gd3bj scf=xqc pop=npa geom=check

CID_72819977_JID_6410_Energie_anion

-1 2
