%chk=JID_9139.chk
%mem=8GB
%nprocshared=4
# opt freq B3LYP/6-31G(d) empiricaldispersion=gd3bj scf=xqc

CID_149918313_JID_9139_neutraal

0 1
C          0.93385       -0.00343        0.07492
C          0.56613       -1.38825        0.58821
C          1.00000       -1.64123        2.03459
C          0.46581       -0.64335        3.06654
C         -1.06193       -0.55926        3.16732
C         -1.74727       -1.83120        3.68855
C         -1.37642       -2.26938        5.08886
C         -1.29117       -3.64060        5.38412
C         -0.99062       -4.09258        6.68097
C         -0.74464       -3.15453        7.68618
C         -0.84923       -1.79061        7.41186
C         -1.17924       -1.35292        6.12883
C         -0.92959       -5.57055        6.90877
O         -0.68510       -6.29654        5.94017
C         -1.12148       -6.19418        8.29278
C          0.21776       -6.37667        8.99168
N         -2.03308       -5.38322        9.11956
N         -2.67771       -5.99978        9.98649
N         -3.26027       -6.56237       10.78742
H          0.36627        0.77874        0.58741
H          0.70779        0.07226       -0.99362
H          2.00162        0.19558        0.20998
H         -0.51301       -1.54333        0.48141
H          1.04930       -2.13710       -0.05125
H          0.70695       -2.65877        2.31823
H          2.09651       -1.62059        2.07770
H          0.88887       -0.89891        4.04495
H          0.85275        0.35598        2.83437
H         -1.32022        0.29112        3.80915
H         -1.48294       -0.31566        2.18494
H         -2.83301       -1.67022        3.67562
H         -1.55231       -2.64825        2.98322
H         -1.46793       -4.37090        4.59461
H         -0.47619       -3.45344        8.69373
H         -0.67773       -1.06390        8.20248
H         -1.27214       -0.28377        5.95586
H         -1.57977       -7.17794        8.11861
H          0.69955       -5.41804        9.20757
H          0.09151       -6.90338        9.94361
H          0.90566       -6.95974        8.37018

--Link1--
%chk=JID_9139.chk
%mem=8GB
%nprocshared=4
# B3LYP/6-311++G(d,p) empiricaldispersion=gd3bj scf=xqc pop=npa geom=check

CID_149918313_JID_9139_Energie_neutraal

0 1

--Link1--
%chk=JID_9139.chk
%mem=8GB
%nprocshared=4
# B3LYP/6-311++G(d,p) empiricaldispersion=gd3bj scf=xqc pop=npa geom=check

CID_149918313_JID_9139_Energie_kation

1 2

--Link1--
%chk=JID_9139.chk
%mem=8GB
%nprocshared=4
# B3LYP/6-311++G(d,p) empiricaldispersion=gd3bj scf=xqc pop=npa geom=check

CID_149918313_JID_9139_Energie_anion

-1 2
