%chk=JID_8893.chk
%mem=8GB
%nprocshared=4
# opt freq B3LYP/6-31G(d) empiricaldispersion=gd3bj scf=xqc

CID_79176172_JID_8893_neutraal

0 1
C          0.91853        0.03799        0.04381
C          0.58171       -0.67272        1.34507
C          0.74438        0.21045        2.58440
C         -0.20610        1.41280        2.69244
N         -1.60475        1.04862        2.98477
C         -1.82723        0.34045        4.26714
C         -3.13866        0.76323        4.95371
O         -4.25071       -0.02046        4.52705
C         -2.43537        0.72823        1.91432
N         -3.22916       -0.36381        2.00481
C         -4.02383       -0.68495        0.95027
C         -4.09808        0.06995       -0.20657
C         -3.31268        1.21798       -0.32093
C         -2.49147        1.54073        0.77465
C         -3.32176        2.12050       -1.52034
N         -5.00991       -0.37389       -1.24342
O         -5.05573       -1.59045       -1.47163
O         -5.69334        0.48321       -1.81797
H          0.23097        0.86197       -0.16094
H          0.85428       -0.66375       -0.79402
H          1.93664        0.43934        0.06961
H         -0.42877       -1.08837        1.29232
H          1.25819       -1.53033        1.44795
H          0.64696       -0.42370        3.47333
H          1.77365        0.59189        2.60077
H          0.14511        2.03722        3.52496
H         -0.10972        2.05643        1.81302
H         -1.78157       -0.74649        4.12622
H         -1.01560        0.61235        4.95358
H         -3.05012        0.61453        6.03446
H         -3.36617        1.81866        4.77260
H         -4.08851       -0.20535        3.57740
H         -4.61596       -1.58672        1.09159
H         -1.90529        2.45467        0.73985
H         -4.22678        2.73559       -1.52701
H         -2.45766        2.79407       -1.51574
H         -3.26142        1.53998       -2.44650

--Link1--
%chk=JID_8893.chk
%mem=8GB
%nprocshared=4
# B3LYP/6-311++G(d,p) empiricaldispersion=gd3bj scf=xqc pop=npa geom=check

CID_79176172_JID_8893_Energie_neutraal

0 1

--Link1--
%chk=JID_8893.chk
%mem=8GB
%nprocshared=4
# B3LYP/6-311++G(d,p) empiricaldispersion=gd3bj scf=xqc pop=npa geom=check

CID_79176172_JID_8893_Energie_kation

1 2

--Link1--
%chk=JID_8893.chk
%mem=8GB
%nprocshared=4
# B3LYP/6-311++G(d,p) empiricaldispersion=gd3bj scf=xqc pop=npa geom=check

CID_79176172_JID_8893_Energie_anion

-1 2
