%chk=JID_9872.chk
%mem=8GB
%nprocshared=4
# opt freq B3LYP/6-31G(d) empiricaldispersion=gd3bj scf=xqc

CID_60660922_JID_9872_neutraal

0 1
C         -2.59100       -0.31800       -0.00700
C         -2.37331       -1.78203       -0.19728
C         -2.34422       -2.81182        0.74173
S         -1.94213       -4.25272       -0.10625
N         -1.94402       -3.49959       -1.59418
N         -2.17447       -2.20260       -1.51250
C         -2.51522       -2.88426        2.17565
O         -1.75004       -3.52355        2.90150
N         -3.51754       -2.17039        2.80846
C         -4.62030       -1.51092        2.25413
C         -5.00251       -0.29741        2.83136
C         -5.86900        0.54605        2.14010
C         -6.36247        0.14691        0.90095
C         -6.16027       -1.14787        0.43290
C         -5.27845       -1.98042        1.11399
O         -6.98483        1.08417        0.12337
C         -6.14426        1.43904       -0.99978
C         -4.95521        2.29852       -0.60247
N         -3.96880        3.01154       -0.27286
H         -1.82976        0.24292       -0.55973
H         -3.56486       -0.03827       -0.40434
H         -2.51431       -0.02132        1.04127
H         -3.31006       -2.01325        3.78797
H         -4.53972        0.06095        3.74745
H         -6.07955        1.54189        2.52193
H         -6.61795       -1.48693       -0.49222
H         -5.07918       -2.96979        0.71077
H         -5.81652        0.55776       -1.56376
H         -6.77238        2.02753       -1.67808

--Link1--
%chk=JID_9872.chk
%mem=8GB
%nprocshared=4
# B3LYP/6-311++G(d,p) empiricaldispersion=gd3bj scf=xqc pop=npa geom=check

CID_60660922_JID_9872_Energie_neutraal

0 1

--Link1--
%chk=JID_9872.chk
%mem=8GB
%nprocshared=4
# B3LYP/6-311++G(d,p) empiricaldispersion=gd3bj scf=xqc pop=npa geom=check

CID_60660922_JID_9872_Energie_kation

1 2

--Link1--
%chk=JID_9872.chk
%mem=8GB
%nprocshared=4
# B3LYP/6-311++G(d,p) empiricaldispersion=gd3bj scf=xqc pop=npa geom=check

CID_60660922_JID_9872_Energie_anion

-1 2
