%chk=JID_1957.chk
%mem=8GB
%nprocshared=4
# opt freq B3LYP/6-31G(d) empiricaldispersion=gd3bj scf=xqc

CID_149272951_JID_1957_neutraal

0 1
C          1.01422       -0.07407        0.06566
C          0.48694       -0.31653       -1.31125
C         -0.32145       -1.33926       -1.63372
C         -0.86133       -1.60515       -2.95802
C         -1.68004       -2.65203       -3.14959
O         -0.45109       -0.70871       -3.91732
C         -0.90822       -0.85650       -5.25118
C         -0.28951       -2.00721       -6.05236
O         -0.98680       -2.84134       -6.63278
N          1.07131       -2.07920       -6.17142
C          2.03975       -1.27331       -5.46944
H          0.66773       -0.82607        0.78152
H          0.69055        0.90923        0.42030
H          2.10825       -0.09284        0.05379
H          0.79110        0.40058       -2.06999
H         -0.61161       -2.03656       -0.84943
H         -2.11387       -2.90476       -4.10970
H         -1.95208       -3.31305       -2.33197
H         -2.00218       -0.93049       -5.28182
H         -0.66018        0.06890       -5.78453
H          1.39160       -2.90349       -6.66530
H          2.11328       -1.62772       -4.43841
H          3.00652       -1.38806       -5.96544
H          1.74385       -0.22197       -5.48205

--Link1--
%chk=JID_1957.chk
%mem=8GB
%nprocshared=4
# B3LYP/6-311++G(d,p) empiricaldispersion=gd3bj scf=xqc pop=npa geom=check

CID_149272951_JID_1957_Energie_neutraal

0 1

--Link1--
%chk=JID_1957.chk
%mem=8GB
%nprocshared=4
# B3LYP/6-311++G(d,p) empiricaldispersion=gd3bj scf=xqc pop=npa geom=check

CID_149272951_JID_1957_Energie_kation

1 2

--Link1--
%chk=JID_1957.chk
%mem=8GB
%nprocshared=4
# B3LYP/6-311++G(d,p) empiricaldispersion=gd3bj scf=xqc pop=npa geom=check

CID_149272951_JID_1957_Energie_anion

-1 2
