%chk=JID_6560.chk
%mem=8GB
%nprocshared=4
# opt freq B3LYP/6-31G(d) empiricaldispersion=gd3bj scf=xqc

CID_140328080_JID_6560_neutraal

0 1
C          2.01000       -1.36700        0.01300
C          0.66520       -0.69902        0.09313
C         -0.48033       -1.46247       -0.12293
C         -1.69958       -0.82059       -0.03982
N         -1.88186        0.49322        0.22622
C         -0.77646        1.23574        0.42884
C          0.51941        0.67205        0.41026
C          1.72937        1.53349        0.67177
N         -0.92437        2.60533        0.70704
C         -2.29351        3.12266        0.61016
C         -2.32323        4.60690        1.02723
N         -1.26422        5.40407        0.38831
S         -3.19474       -1.74256       -0.29411
O         -3.23415       -2.11614       -1.69754
O         -3.25413       -2.75745        0.74402
C         -4.51391       -0.59579       -0.00126
H          2.44827       -1.45539        1.01196
H          1.93191       -2.37443       -0.41012
H          2.68406       -0.79870       -0.63597
H         -0.43070       -2.52330       -0.34820
H          2.56009        0.95472        1.08622
H          2.05814        2.00485       -0.25959
H          1.51637        2.31289        1.41073
H         -0.33189        3.12937        0.06488
H         -2.65262        3.03313       -0.42301
H         -2.97391        2.56783        1.26756
H         -3.30048        5.03209        0.77510
H         -2.20222        4.68358        2.11406
H         -1.38709        6.38056        0.65717
H         -0.37560        5.12298        0.80584
H         -4.44931       -0.22492        1.02344
H         -4.44858        0.22230       -0.72117
H         -5.45803       -1.12808       -0.13862

--Link1--
%chk=JID_6560.chk
%mem=8GB
%nprocshared=4
# B3LYP/6-311++G(d,p) empiricaldispersion=gd3bj scf=xqc pop=npa geom=check

CID_140328080_JID_6560_Energie_neutraal

0 1

--Link1--
%chk=JID_6560.chk
%mem=8GB
%nprocshared=4
# B3LYP/6-311++G(d,p) empiricaldispersion=gd3bj scf=xqc pop=npa geom=check

CID_140328080_JID_6560_Energie_kation

1 2

--Link1--
%chk=JID_6560.chk
%mem=8GB
%nprocshared=4
# B3LYP/6-311++G(d,p) empiricaldispersion=gd3bj scf=xqc pop=npa geom=check

CID_140328080_JID_6560_Energie_anion

-1 2
