%chk=JID_3505.chk
%mem=8GB
%nprocshared=4
# opt freq B3LYP/6-31G(d) empiricaldispersion=gd3bj scf=xqc

CID_91658569_JID_3505_neutraal

0 1
C          3.06900        0.39100        0.00800
C          1.58601        0.14196       -0.02645
C          0.72007        1.19265       -0.36860
C         -0.67438        1.02100       -0.41136
C         -1.21763       -0.23866       -0.10204
C         -0.34653       -1.28967        0.24051
C          1.04475       -1.11401        0.29121
C          1.92131       -2.28050        0.65585
C         -2.70415       -0.52062       -0.11812
C         -3.32280       -0.70987        1.27692
C         -3.35854        0.57084        2.10171
O         -4.66418       -1.18787        1.12926
C         -1.53301        2.19091       -0.80685
H          3.31858        1.38769       -0.37128
H          3.43957        0.32202        1.03557
H          3.59485       -0.33532       -0.61983
H          1.14251        2.16689       -0.61107
H         -0.76521       -2.26919        0.47067
H          1.32945       -3.13847        0.99226
H          2.50756       -2.59742       -0.21244
H          2.59659       -2.01316        1.47478
H         -3.25739        0.25146       -0.66496
H         -2.87283       -1.43110       -0.71039
H         -2.77769       -1.47849        1.83546
H         -3.93048        1.35205        1.58923
H         -3.86336        0.39207        3.05743
H         -2.35348        0.94864        2.30937
H         -5.18177       -0.49256        0.68821
H         -2.26679        2.41107       -0.02617
H         -0.93675        3.09786       -0.95408
H         -2.04912        1.98033       -1.74883

--Link1--
%chk=JID_3505.chk
%mem=8GB
%nprocshared=4
# B3LYP/6-311++G(d,p) empiricaldispersion=gd3bj scf=xqc pop=npa geom=check

CID_91658569_JID_3505_Energie_neutraal

0 1

--Link1--
%chk=JID_3505.chk
%mem=8GB
%nprocshared=4
# B3LYP/6-311++G(d,p) empiricaldispersion=gd3bj scf=xqc pop=npa geom=check

CID_91658569_JID_3505_Energie_kation

1 2

--Link1--
%chk=JID_3505.chk
%mem=8GB
%nprocshared=4
# B3LYP/6-311++G(d,p) empiricaldispersion=gd3bj scf=xqc pop=npa geom=check

CID_91658569_JID_3505_Energie_anion

-1 2
