%chk=JID_3559.chk
%mem=8GB
%nprocshared=4
# opt freq B3LYP/6-31G(d) empiricaldispersion=gd3bj scf=xqc

CID_112712415_JID_3559_neutraal

0 1
C          0.95693        0.06911       -0.05804
C          0.19038       -0.34003        1.20546
C          0.52720        0.58412        2.40011
C          0.28921        2.05917        2.18622
C          1.28008        2.96024        2.06992
C          0.92863        4.39262        1.88102
O          1.81035        5.23880        1.77219
C         -0.50019        4.73422        1.82872
C         -1.38069        3.74130        1.97130
O         -1.05346        2.42083        2.16379
O          2.62002        2.62703        2.11155
C         -1.32715       -0.42929        0.95940
N         -1.67043       -1.51367        0.04140
H          0.57864        1.00869       -0.47398
H          0.87518       -0.69719       -0.83546
H          2.02305        0.19573        0.15900
H          0.54118       -1.34259        1.48953
H         -0.05118        0.26505        3.27741
H          1.57594        0.40995        2.67449
H         -0.77715        5.76789        1.68046
H         -2.45378        3.87595        1.95201
H          3.09578        3.47878        2.00906
H         -1.84465       -0.61268        1.90757
H         -1.71320        0.50893        0.54795
H         -2.68210       -1.54374       -0.07951
H         -1.28308       -1.32202       -0.88127

--Link1--
%chk=JID_3559.chk
%mem=8GB
%nprocshared=4
# B3LYP/6-311++G(d,p) empiricaldispersion=gd3bj scf=xqc pop=npa geom=check

CID_112712415_JID_3559_Energie_neutraal

0 1

--Link1--
%chk=JID_3559.chk
%mem=8GB
%nprocshared=4
# B3LYP/6-311++G(d,p) empiricaldispersion=gd3bj scf=xqc pop=npa geom=check

CID_112712415_JID_3559_Energie_kation

1 2

--Link1--
%chk=JID_3559.chk
%mem=8GB
%nprocshared=4
# B3LYP/6-311++G(d,p) empiricaldispersion=gd3bj scf=xqc pop=npa geom=check

CID_112712415_JID_3559_Energie_anion

-1 2
