%chk=JID_3063.chk
%mem=8GB
%nprocshared=4
# opt freq B3LYP/6-31G(d) empiricaldispersion=gd3bj scf=xqc

CID_117203097_JID_3063_neutraal

0 1
C          0.93527       -0.04308       -0.06289
C          0.66825        0.95123       -1.19455
C         -0.77744        1.48417       -1.14551
S         -0.75065        3.00135       -0.15288
C          0.95107        3.28558       -0.55030
C          1.62644        4.48066       -0.35775
C          2.96096        4.56280       -0.74330
C          3.60103        3.45213       -1.30640
C          2.92600        2.22991       -1.49096
C          1.57890        2.15963       -1.10880
C          3.68262        1.06273       -2.08266
C          4.71162        0.48213       -1.10325
N          5.38097       -0.68738       -1.67185
H          0.23114       -0.88059       -0.11236
H          0.83777        0.42236        0.92416
H          1.94433       -0.45970       -0.13092
H          0.80115        0.43974       -2.15486
H         -1.10678        1.75779       -2.15471
H         -1.48885        0.75645       -0.74386
H          1.12457        5.34015        0.07545
H          3.50784        5.49274       -0.60969
H          4.64476        3.54749       -1.60322
H          2.99098        0.27634       -2.40264
H          4.18567        1.40119       -2.99840
H          5.47114        1.23353       -0.86034
H          4.22974        0.19741       -0.16148
H          6.04367       -1.05629       -0.99017
H          4.69881       -1.42815       -1.83042

--Link1--
%chk=JID_3063.chk
%mem=8GB
%nprocshared=4
# B3LYP/6-311++G(d,p) empiricaldispersion=gd3bj scf=xqc pop=npa geom=check

CID_117203097_JID_3063_Energie_neutraal

0 1

--Link1--
%chk=JID_3063.chk
%mem=8GB
%nprocshared=4
# B3LYP/6-311++G(d,p) empiricaldispersion=gd3bj scf=xqc pop=npa geom=check

CID_117203097_JID_3063_Energie_kation

1 2

--Link1--
%chk=JID_3063.chk
%mem=8GB
%nprocshared=4
# B3LYP/6-311++G(d,p) empiricaldispersion=gd3bj scf=xqc pop=npa geom=check

CID_117203097_JID_3063_Energie_anion

-1 2
