%chk=JID_7281.chk
%mem=8GB
%nprocshared=4
# opt freq B3LYP/6-31G(d) empiricaldispersion=gd3bj scf=xqc

CID_89350797_JID_7281_neutraal

0 1
C          1.01732       -0.09050        0.03885
C          0.64377       -1.53621        0.36293
C          1.49957       -2.04376        1.52729
C         -0.84884       -1.70712        0.70681
C         -1.84869       -1.22448       -0.35094
C         -1.61967       -1.73899       -1.77308
C         -1.57949       -3.25941       -1.92377
C         -2.88442       -4.00013       -1.63095
C         -4.13053       -3.56001       -2.40783
C         -3.97253       -3.34803       -3.91395
O         -3.11445       -4.32990       -4.48334
C         -3.08407       -4.32457       -5.91077
C         -2.62097       -3.01054       -6.54345
C         -1.26039       -2.54574       -6.01967
N         -0.89504       -1.27283       -6.65881
C          0.09493       -0.51396       -5.90036
C         -1.35177       -0.09654       -5.92337
H          0.76948        0.57722        0.87102
H          0.49687        0.27255       -0.85186
H          2.09191       -0.00219       -0.15469
H          0.88512       -2.15235       -0.51082
H          1.32324       -1.45745        2.43572
H          1.27164       -3.09152        1.75010
H          2.56546       -1.97901        1.28439
H         -1.04461       -2.76634        0.91689
H         -1.06741       -1.17387        1.64167
H         -2.85853       -1.50136       -0.02412
H         -1.83748       -0.12773       -0.37680
H         -2.39609       -1.31718       -2.41983
H         -0.67519       -1.33501       -2.15581
H         -1.25483       -3.49640       -2.94127
H         -0.79813       -3.67645       -1.27813
H         -2.71295       -5.06596       -1.83087
H         -3.10644       -3.93432       -0.55864
H         -4.89301       -4.33439       -2.25155
H         -4.54129       -2.64415       -1.96588
H         -4.95939       -3.38826       -4.38989
H         -3.55451       -2.35309       -4.09043
H         -2.40335       -5.12833       -6.21257
H         -4.07796       -4.59321       -6.28691
H         -2.57419       -3.14402       -7.63155
H         -3.37148       -2.23321       -6.35644
H         -1.27916       -2.46792       -4.92798
H         -0.49910       -3.29372       -6.27068
H          0.49622       -0.94118       -4.98906
H          0.79882        0.06343       -6.48769
H         -1.62553        0.75884       -6.52943
H         -1.94708       -0.23669       -5.02924

--Link1--
%chk=JID_7281.chk
%mem=8GB
%nprocshared=4
# B3LYP/6-311++G(d,p) empiricaldispersion=gd3bj scf=xqc pop=npa geom=check

CID_89350797_JID_7281_Energie_neutraal

0 1

--Link1--
%chk=JID_7281.chk
%mem=8GB
%nprocshared=4
# B3LYP/6-311++G(d,p) empiricaldispersion=gd3bj scf=xqc pop=npa geom=check

CID_89350797_JID_7281_Energie_kation

1 2

--Link1--
%chk=JID_7281.chk
%mem=8GB
%nprocshared=4
# B3LYP/6-311++G(d,p) empiricaldispersion=gd3bj scf=xqc pop=npa geom=check

CID_89350797_JID_7281_Energie_anion

-1 2
