%chk=JID_9690.chk
%mem=8GB
%nprocshared=4
# opt freq B3LYP/6-31G(d) empiricaldispersion=gd3bj scf=xqc

CID_72123067_JID_9690_neutraal

0 1
C          2.24700        0.13300       -0.01700
C          0.79454        0.13890       -0.24554
C         -0.12565        1.08353       -0.63143
N         -1.37089        0.51628       -0.72139
C         -1.16958       -0.74465       -0.38414
O          0.13119       -1.04103       -0.06576
C         -2.15053       -1.87854       -0.34113
N         -2.18289       -2.76246       -1.52998
C         -2.53559       -2.03169       -2.75196
C         -2.67827       -2.98894       -3.93620
C         -1.40769       -3.81327       -4.14191
C         -0.98583       -4.54306       -2.85440
C         -0.93603       -3.53134       -1.68804
C         -1.81533       -5.75725       -2.55825
N         -1.76558       -6.39981       -1.38089
O         -2.61102       -7.49262       -1.57076
C         -3.04978       -7.42153       -2.85924
N         -2.58136       -6.38532       -3.51384
C         -3.94630       -8.49533       -3.31857
H          2.48022       -0.27030        0.97316
H          2.74949       -0.48416       -0.76798
H          2.65816        1.14538       -0.07674
H          0.04084        2.12766       -0.85694
H         -1.95685       -2.48496        0.55272
H         -3.15419       -1.46024       -0.19219
H         -1.78093       -1.27388       -2.99728
H         -3.49080       -1.51100       -2.61410
H         -2.89097       -2.41476       -4.84534
H         -3.53531       -3.65397       -3.77415
H         -1.54682       -4.51360       -4.97354
H         -0.59814       -3.13467       -4.44231
H          0.03689       -4.91381       -3.01228
H         -0.70346       -4.05438       -0.75208
H         -0.09723       -2.84991       -1.88105
H         -3.73171       -9.43597       -2.80245
H         -4.98938       -8.22607       -3.13028
H         -3.82238       -8.66305       -4.39275

--Link1--
%chk=JID_9690.chk
%mem=8GB
%nprocshared=4
# B3LYP/6-311++G(d,p) empiricaldispersion=gd3bj scf=xqc pop=npa geom=check

CID_72123067_JID_9690_Energie_neutraal

0 1

--Link1--
%chk=JID_9690.chk
%mem=8GB
%nprocshared=4
# B3LYP/6-311++G(d,p) empiricaldispersion=gd3bj scf=xqc pop=npa geom=check

CID_72123067_JID_9690_Energie_kation

1 2

--Link1--
%chk=JID_9690.chk
%mem=8GB
%nprocshared=4
# B3LYP/6-311++G(d,p) empiricaldispersion=gd3bj scf=xqc pop=npa geom=check

CID_72123067_JID_9690_Energie_anion

-1 2
