%chk=JID_7041.chk
%mem=8GB
%nprocshared=4
# opt freq B3LYP/6-31G(d) empiricaldispersion=gd3bj scf=xqc

CID_103432930_JID_7041_neutraal

0 1
C          1.85400        1.50000       -0.02200
C          0.53270        0.77849       -0.05312
C          0.40568       -0.55821        0.38870
C         -0.85312       -1.18781        0.30001
C         -1.98523       -0.47025       -0.11507
C         -1.85537        0.85973       -0.52158
C         -0.60387        1.47413       -0.49605
C         -3.32646       -1.11044       -0.14466
O         -3.48043       -2.15583       -0.77735
C         -4.50523       -0.39764        0.48918
S         -4.17875        0.19609        2.17870
C         -4.60786       -1.26753        3.20564
C         -6.10718       -1.55039        3.18327
C         -3.79323       -2.50615        2.85714
O         -0.99015       -2.48620        0.72579
C         -0.71375       -3.39591       -0.34300
C          1.60243       -1.31023        0.91203
H          2.12943        1.73733        1.01027
H          2.63851        0.88918       -0.48013
H          1.81070        2.43853       -0.58511
H         -2.71329        1.42860       -0.86836
H         -0.52067        2.51040       -0.81955
H         -4.76771        0.45897       -0.13982
H         -5.36942       -1.06616        0.48286
H         -4.34470       -0.97840        4.23001
H         -6.45052       -1.91003        2.20878
H         -6.35436       -2.32658        3.91656
H         -6.68641       -0.65889        3.44741
H         -2.71946       -2.29569        2.88237
H         -3.98343       -3.29943        3.58914
H         -4.05317       -2.91125        1.87508
H         -1.23187       -4.33467       -0.12583
H         -1.05775       -3.03205       -1.31788
H          0.35999       -3.60291       -0.38707
H          1.31113       -2.13808        1.56609
H          2.18550       -1.71090        0.07716
H          2.24279       -0.66149        1.51801

--Link1--
%chk=JID_7041.chk
%mem=8GB
%nprocshared=4
# B3LYP/6-311++G(d,p) empiricaldispersion=gd3bj scf=xqc pop=npa geom=check

CID_103432930_JID_7041_Energie_neutraal

0 1

--Link1--
%chk=JID_7041.chk
%mem=8GB
%nprocshared=4
# B3LYP/6-311++G(d,p) empiricaldispersion=gd3bj scf=xqc pop=npa geom=check

CID_103432930_JID_7041_Energie_kation

1 2

--Link1--
%chk=JID_7041.chk
%mem=8GB
%nprocshared=4
# B3LYP/6-311++G(d,p) empiricaldispersion=gd3bj scf=xqc pop=npa geom=check

CID_103432930_JID_7041_Energie_anion

-1 2
