%chk=JID_5911.chk
%mem=8GB
%nprocshared=4
# opt freq B3LYP/6-31G(d) empiricaldispersion=gd3bj scf=xqc

CID_63685047_JID_5911_neutraal

0 1
C          0.92607       -0.01069       -0.06648
C         -0.20190        0.68946        0.67411
C          0.30549        1.70276        1.69520
O          0.84368        2.84919        1.04386
C          2.26552        2.99729        1.12332
C          2.74404        3.36296        2.53255
O          3.04525        2.17505        3.29179
C          4.27902        1.63855        3.06515
O          5.11049        2.10379        2.29211
C          4.43121        0.30915        3.81839
C          4.02694       -0.86854        2.91167
C          4.73796       -0.99289        1.55679
S          6.49001       -1.47445        1.69779
C          7.21139       -0.28229        0.53977
N          5.79210        0.18779        4.37290
H          1.48637        0.69037       -0.69201
H          0.51958       -0.78726       -0.72238
H          1.62086       -0.48774        0.63050
H         -0.84759        1.18813       -0.05790
H         -0.80450       -0.06594        1.19094
H         -0.54574        2.05317        2.28882
H          1.01049        1.23205        2.38466
H          2.75187        2.09550        0.73918
H          2.51067        3.82411        0.44878
H          3.62911        4.00830        2.49014
H          1.96535        3.90466        3.07905
H          3.75285        0.33307        4.67989
H          4.12464       -1.81071        3.46721
H          2.95441       -0.76377        2.69904
H          4.24485       -1.78081        0.97652
H          4.63317       -0.07216        0.97587
H          6.77134       -0.39981       -0.45376
H          7.05482        0.73863        0.89601
H          8.28767       -0.45998        0.46705
H          5.91995       -0.75383        4.74461
H          6.45827        0.24374        3.59532

--Link1--
%chk=JID_5911.chk
%mem=8GB
%nprocshared=4
# B3LYP/6-311++G(d,p) empiricaldispersion=gd3bj scf=xqc pop=npa geom=check

CID_63685047_JID_5911_Energie_neutraal

0 1

--Link1--
%chk=JID_5911.chk
%mem=8GB
%nprocshared=4
# B3LYP/6-311++G(d,p) empiricaldispersion=gd3bj scf=xqc pop=npa geom=check

CID_63685047_JID_5911_Energie_kation

1 2

--Link1--
%chk=JID_5911.chk
%mem=8GB
%nprocshared=4
# B3LYP/6-311++G(d,p) empiricaldispersion=gd3bj scf=xqc pop=npa geom=check

CID_63685047_JID_5911_Energie_anion

-1 2
