%chk=JID_8101.chk
%mem=8GB
%nprocshared=4
# opt freq B3LYP/6-31G(d) empiricaldispersion=gd3bj scf=xqc

CID_116810694_JID_8101_neutraal

0 1
C          0.90212        0.00586        0.01964
N          0.53194        1.32512       -0.45346
C         -0.89208        1.41301       -0.83782
C         -1.32109        2.89612       -0.75230
C         -1.35212        3.40258        0.70490
N         -0.93243        4.79651        0.93251
C         -1.68149        5.75813        0.13340
C          0.50969        4.95185        0.73914
C         -1.17365        0.81848       -2.21994
C         -0.55849        1.31361       -3.39246
C         -0.85786        0.76162       -4.64556
C         -1.79348       -0.26266       -4.75995
C         -2.41076       -0.76402       -3.61923
C         -2.08381       -0.24957       -2.35881
O         -2.69992       -0.74231       -1.23443
C         -2.52304       -2.15217       -1.09182
O          0.39309        2.29305       -3.24476
C          0.41084        3.27711       -4.27576
H          0.75936       -0.76179       -0.74733
H          0.33146       -0.27098        0.91200
H          1.96076        0.00367        0.29747
H          1.09058        1.58134       -1.27048
H         -1.48366        0.88558       -0.07961
H         -0.65413        3.51168       -1.36376
H         -2.32226        3.02338       -1.18605
H         -2.37982        3.29309        1.07698
H         -0.75850        2.75687        1.36400
H         -1.41773        6.78027        0.42773
H         -1.49259        5.65956       -0.94086
H         -2.75729        5.64958        0.30780
H          1.06385        4.24808        1.37097
H          0.82077        4.79660       -0.29939
H          0.82857        5.95572        1.04016
H         -0.36205        1.10865       -5.54688
H         -2.03627       -0.67342       -5.73639
H         -3.15364       -1.54925       -3.72270
H         -1.49805       -2.46174       -1.32771
H         -2.71881       -2.40932       -0.04658
H         -3.24201       -2.69740       -1.71127
H          0.93986        4.15360       -3.88940
H          0.96232        2.91223       -5.14759
H         -0.60028        3.59393       -4.55535

--Link1--
%chk=JID_8101.chk
%mem=8GB
%nprocshared=4
# B3LYP/6-311++G(d,p) empiricaldispersion=gd3bj scf=xqc pop=npa geom=check

CID_116810694_JID_8101_Energie_neutraal

0 1

--Link1--
%chk=JID_8101.chk
%mem=8GB
%nprocshared=4
# B3LYP/6-311++G(d,p) empiricaldispersion=gd3bj scf=xqc pop=npa geom=check

CID_116810694_JID_8101_Energie_kation

1 2

--Link1--
%chk=JID_8101.chk
%mem=8GB
%nprocshared=4
# B3LYP/6-311++G(d,p) empiricaldispersion=gd3bj scf=xqc pop=npa geom=check

CID_116810694_JID_8101_Energie_anion

-1 2
