%chk=JID_4874.chk
%mem=8GB
%nprocshared=4
# opt freq B3LYP/6-31G(d) empiricaldispersion=gd3bj scf=xqc

CID_21938839_JID_4874_neutraal

0 1
C          0.96837       -0.02106        0.09250
C          0.54438       -0.52014        1.44907
O         -0.00069        0.22723        2.26691
C          0.83060       -1.96316        1.76196
C          3.16884       -2.06067       -2.84411
C          1.67367       -2.22291       -2.87491
O          1.06707       -2.76228       -1.94977
C          0.95211       -1.63998       -4.06002
C          3.95317        3.73796        0.87920
C          2.57589        3.86115        1.45455
C          1.84778        4.98674        1.36894
C          2.05593        2.63147        2.10201
O          2.70139        1.60685        2.24272
O          0.75925        2.72273        2.44118
H          0.76824        1.05002        0.00888
H          0.39060       -0.53701       -0.67652
H          2.03734       -0.19575       -0.04993
H          0.36667       -2.60255        1.00717
H          1.91124       -2.12421        1.78089
H          0.41540       -2.21690        2.74120
H          3.57975       -2.60487       -1.98923
H          3.41811       -1.00124       -2.74723
H          3.60276       -2.46909       -3.76001
H          1.04416       -0.55121       -4.04301
H          1.37780       -2.03943       -4.98389
H         -0.10647       -1.91074       -4.01762
H          4.25884        4.64698        0.35095
H          3.99538        2.91147        0.16103
H          4.68455        3.54782        1.67133
H          0.84546        5.05472        1.78274
H          2.23504        5.87366        0.87898
H          0.47794        1.80088        2.67850

--Link1--
%chk=JID_4874.chk
%mem=8GB
%nprocshared=4
# B3LYP/6-311++G(d,p) empiricaldispersion=gd3bj scf=xqc pop=npa geom=check

CID_21938839_JID_4874_Energie_neutraal

0 1

--Link1--
%chk=JID_4874.chk
%mem=8GB
%nprocshared=4
# B3LYP/6-311++G(d,p) empiricaldispersion=gd3bj scf=xqc pop=npa geom=check

CID_21938839_JID_4874_Energie_kation

1 2

--Link1--
%chk=JID_4874.chk
%mem=8GB
%nprocshared=4
# B3LYP/6-311++G(d,p) empiricaldispersion=gd3bj scf=xqc pop=npa geom=check

CID_21938839_JID_4874_Energie_anion

-1 2
