%chk=JID_9273.chk
%mem=8GB
%nprocshared=4
# opt freq B3LYP/6-31G(d) empiricaldispersion=gd3bj scf=xqc

CID_57283689_JID_9273_neutraal

0 1
C          0.91806        0.02918       -0.04934
C          0.29421       -1.31811        0.02279
C         -0.98108       -1.71866       -0.22112
C         -1.10713       -3.18801        0.00950
C          0.10033       -3.62626        0.41931
C          1.02189       -2.50509        0.42862
C          2.30364       -2.67104        0.78232
C          2.74254       -4.00085        1.15397
C          1.86024       -5.01259        1.14350
O          0.52737       -4.87193        0.79017
C         -2.41997       -3.92077       -0.15492
C         -2.62327       -5.19458        0.69424
C         -2.07498       -6.48770        0.09280
N         -2.34199       -6.60610       -1.33035
C         -2.02700       -5.45127       -2.15151
C         -2.73874       -4.21065       -1.63354
C         -2.36368       -7.86761       -1.89851
O         -2.31873       -8.93036       -1.29272
C         -2.13488       -0.86285       -0.62463
H          1.30884        0.32472        0.92999
H          0.21174        0.80054       -0.36644
H          1.74617        0.03017       -0.76589
H          3.01693       -1.85641        0.80394
H          3.77761       -4.15351        1.43680
H          2.08879       -6.03598        1.40506
H         -3.19182       -3.22716        0.20734
H         -2.23171       -5.05793        1.70934
H         -3.70813       -5.33164        0.80952
H         -0.99461       -6.57564        0.22260
H         -2.51443       -7.34303        0.61987
H         -2.32553       -5.64441       -3.18801
H         -0.93865       -5.32017       -2.14757
H         -3.82230       -4.36353       -1.72888
H         -2.48892       -3.35897       -2.27495
H         -2.46812       -7.83809       -2.99590
H         -2.93546       -0.91734        0.11992
H         -1.85853        0.19072       -0.71880
H         -2.53549       -1.17553       -1.59283

--Link1--
%chk=JID_9273.chk
%mem=8GB
%nprocshared=4
# B3LYP/6-311++G(d,p) empiricaldispersion=gd3bj scf=xqc pop=npa geom=check

CID_57283689_JID_9273_Energie_neutraal

0 1

--Link1--
%chk=JID_9273.chk
%mem=8GB
%nprocshared=4
# B3LYP/6-311++G(d,p) empiricaldispersion=gd3bj scf=xqc pop=npa geom=check

CID_57283689_JID_9273_Energie_kation

1 2

--Link1--
%chk=JID_9273.chk
%mem=8GB
%nprocshared=4
# B3LYP/6-311++G(d,p) empiricaldispersion=gd3bj scf=xqc pop=npa geom=check

CID_57283689_JID_9273_Energie_anion

-1 2
