%chk=JID_10287.chk
%mem=8GB
%nprocshared=4
# opt freq B3LYP/6-31G(d) empiricaldispersion=gd3bj scf=xqc

CID_54796834_JID_10287_neutraal

0 1
C          2.54100        1.06400        0.00800
C          1.17297        0.48409       -0.18733
C          0.02942        1.23444        0.09875
C         -1.24443        0.70086       -0.12632
C         -1.36398       -0.59156       -0.66262
C         -0.23693       -1.37619       -0.92859
C          1.02593       -0.80122       -0.72440
N         -0.29678       -2.64943       -1.51821
C         -1.46726       -3.48650       -1.23469
C         -1.24432       -4.92574       -1.73203
O         -0.51781       -5.71660       -0.77297
C          0.84224       -5.64837       -0.91277
C          1.45353       -6.12919       -2.07504
C          2.83492       -6.01640       -2.24025
C          3.61046       -5.43252       -1.24114
C          3.00746       -4.98508       -0.06555
C          1.62901       -5.12154        0.12057
O          1.15803       -4.62100        1.30520
C          0.18199       -5.43768        1.94542
C         -2.46799        1.52954        0.13226
H          2.86750        1.56976       -0.90587
H          2.54539        1.78543        0.83189
H          3.26552        0.28204        0.25887
H          0.13064        2.24481        0.48945
H         -2.35719       -0.97396       -0.87667
H          1.91708       -1.37097       -0.98013
H          0.57137       -3.14723       -1.32247
H         -1.67532       -3.49864       -0.15838
H         -2.33351       -3.07545       -1.76484
H         -2.22369       -5.40945       -1.82229
H         -0.79239       -4.94289       -2.73092
H          0.85958       -6.58949       -2.85938
H          3.30478       -6.37897       -3.15107
H          4.68484       -5.33171       -1.37206
H          3.61397       -4.53525        0.71663
H         -0.82434       -5.14458        1.63367
H          0.35033       -6.50731        1.77657
H          0.25592       -5.25767        3.02253
H         -2.30573        2.21275        0.97264
H         -2.71855        2.11517       -0.75751
H         -3.32249        0.89549        0.39118

--Link1--
%chk=JID_10287.chk
%mem=8GB
%nprocshared=4
# B3LYP/6-311++G(d,p) empiricaldispersion=gd3bj scf=xqc pop=npa geom=check

CID_54796834_JID_10287_Energie_neutraal

0 1

--Link1--
%chk=JID_10287.chk
%mem=8GB
%nprocshared=4
# B3LYP/6-311++G(d,p) empiricaldispersion=gd3bj scf=xqc pop=npa geom=check

CID_54796834_JID_10287_Energie_kation

1 2

--Link1--
%chk=JID_10287.chk
%mem=8GB
%nprocshared=4
# B3LYP/6-311++G(d,p) empiricaldispersion=gd3bj scf=xqc pop=npa geom=check

CID_54796834_JID_10287_Energie_anion

-1 2
