%chk=JID_4503.chk
%mem=8GB
%nprocshared=4
# opt freq B3LYP/6-31G(d) empiricaldispersion=gd3bj scf=xqc

CID_85860344_JID_4503_neutraal

0 1
C          0.91918       -0.02987        0.05076
C         -0.24151        0.08777        1.02834
C         -0.29869        1.43523        1.75611
C         -0.45040        2.68158        0.86538
N         -1.80963        3.14526        0.55807
C         -2.44633        3.82319        1.69643
C         -2.54447        5.33227        1.42910
C         -3.43706        5.72907        0.24825
C         -4.91287        5.45087        0.49012
C         -2.70614        2.18154       -0.09102
C         -2.27178        1.73958       -1.50228
N         -2.35706        2.85866       -2.46089
C         -1.34658        3.41797       -2.67305
S          0.01300        4.17736       -3.00655
H          0.81530        0.64122       -0.80458
H          0.97320       -1.05088       -0.34129
H          1.87052        0.18923        0.54610
H         -1.17833       -0.12301        0.50713
H         -0.13231       -0.70042        1.78394
H         -1.10054        1.40114        2.50361
H          0.63191        1.54340        2.32925
H          0.07703        3.50828        1.36209
H          0.10321        2.55187       -0.06743
H         -3.43991        3.41534        1.91749
H         -1.87101        3.67992        2.62033
H         -2.91086        5.82722        2.33699
H         -1.53650        5.72911        1.25051
H         -3.31504        6.80387        0.06790
H         -3.11395        5.22460       -0.66808
H         -5.27053        5.98564        1.37558
H         -5.50342        5.78614       -0.36855
H         -5.10918        4.38479        0.63101
H         -2.85777        1.30461        0.54751
H         -3.69650        2.63974       -0.20769
H         -1.28338        1.26827       -1.49982
H         -2.97103        0.96645       -1.84388

--Link1--
%chk=JID_4503.chk
%mem=8GB
%nprocshared=4
# B3LYP/6-311++G(d,p) empiricaldispersion=gd3bj scf=xqc pop=npa geom=check

CID_85860344_JID_4503_Energie_neutraal

0 1

--Link1--
%chk=JID_4503.chk
%mem=8GB
%nprocshared=4
# B3LYP/6-311++G(d,p) empiricaldispersion=gd3bj scf=xqc pop=npa geom=check

CID_85860344_JID_4503_Energie_kation

1 2

--Link1--
%chk=JID_4503.chk
%mem=8GB
%nprocshared=4
# B3LYP/6-311++G(d,p) empiricaldispersion=gd3bj scf=xqc pop=npa geom=check

CID_85860344_JID_4503_Energie_anion

-1 2
