%chk=JID_10565.chk
%mem=8GB
%nprocshared=4
# opt freq B3LYP/6-31G(d) empiricaldispersion=gd3bj scf=xqc

CID_151513018_JID_10565_neutraal

0 1
C          1.06734       -0.03172        0.06678
C          0.58300        1.34720        0.56204
C          1.06733        2.39066       -0.47467
C          0.56066        2.07806       -1.87322
C          0.12604        1.80991       -3.07291
N         -0.37146        1.50804       -4.37945
C         -0.62876        0.23732       -4.74317
C         -1.10843       -0.03919       -6.01711
C         -1.30739        1.02943       -6.86871
N         -1.05895        2.30503       -6.51642
C         -0.59499        2.49340       -5.26328
N         -0.88928        1.34397        0.67490
N         -1.57622        0.78963       -0.19314
N         -2.17588        0.29837       -1.03057
O          1.31494        1.50926        1.79168
C          0.94735        2.46499        2.78931
C         -0.44979        2.30506        3.38077
C         -1.22761        3.53253        2.90639
N         -0.35906        4.24793        1.96296
C          1.00948        3.93599        2.38706
H          0.65534       -0.34323       -0.89738
H          0.79548       -0.80535        0.79646
H          2.16163       -0.05838       -0.00840
H          0.70486        3.39141       -0.23317
H          2.16256        2.44534       -0.48662
H         -0.44739       -0.54196       -4.00885
H         -1.32131       -1.05499       -6.33458
H         -1.68193        0.88518       -7.88124
H         -0.39132        3.51629       -4.95864
H          1.67773        2.30288        3.59097
H         -0.39242        2.33431        4.47606
H         -0.93370        1.36260        3.11364
H         -2.17038        3.25483        2.42523
H         -1.46683        4.17792        3.75976
H         -0.53209        5.25180        2.02563
H          1.26034        4.55453        3.25780
H          1.73942        4.14040        1.60077

--Link1--
%chk=JID_10565.chk
%mem=8GB
%nprocshared=4
# B3LYP/6-311++G(d,p) empiricaldispersion=gd3bj scf=xqc pop=npa geom=check

CID_151513018_JID_10565_Energie_neutraal

0 1

--Link1--
%chk=JID_10565.chk
%mem=8GB
%nprocshared=4
# B3LYP/6-311++G(d,p) empiricaldispersion=gd3bj scf=xqc pop=npa geom=check

CID_151513018_JID_10565_Energie_kation

1 2

--Link1--
%chk=JID_10565.chk
%mem=8GB
%nprocshared=4
# B3LYP/6-311++G(d,p) empiricaldispersion=gd3bj scf=xqc pop=npa geom=check

CID_151513018_JID_10565_Energie_anion

-1 2
