%chk=JID_3193.chk
%mem=8GB
%nprocshared=4
# opt freq B3LYP/6-31G(d) empiricaldispersion=gd3bj scf=xqc

CID_142214452_JID_3193_neutraal

0 1
C          1.06047        0.07033        0.03737
C          0.75978        0.18973        1.52517
C          1.25334        1.47353        2.28702
C          0.70251        2.76719        1.56627
C         -0.81138        2.89276        1.40249
C          0.55970        1.43635        3.70857
C          0.87762        0.28358        4.65390
C          2.87257        1.57548        2.38887
C          3.55664        0.20562        2.61139
C          3.52857        2.17632        1.11406
C          3.31880        2.51273        3.54245
C         -0.82935       -3.50639        0.90297
C         -1.81492       -2.89046        0.60292
H          0.73424        0.94637       -0.52751
H          0.52712       -0.79342       -0.37435
H          2.12123       -0.10361       -0.15140
H         -0.32985        0.11197        1.63534
H          1.14971       -0.71102        2.01159
H          1.04470        3.65671        2.10884
H          1.12609        2.84505        0.55982
H         -1.31960        3.00308        2.36390
H         -1.04113        3.79037        0.81760
H         -1.23997        2.04018        0.86993
H          0.74249        2.38048        4.23631
H         -0.52731        1.39571        3.56599
H          1.89225        0.33765        5.05088
H          0.20489        0.32874        5.51804
H          0.72947       -0.69133        4.18352
H          3.45259       -0.44733        1.73952
H          4.63374        0.32892        2.77968
H          3.16541       -0.33003        3.47628
H          3.27939        3.23549        0.98740
H          4.62308        2.12625        1.17616
H          3.24277        1.65065        0.20270
H          2.86184        3.50376        3.45838
H          3.07572        2.10949        4.52815
H          4.40600        2.65980        3.53120
H          0.04732       -4.05139        1.16801
H         -2.68844       -2.34167        0.33523

--Link1--
%chk=JID_3193.chk
%mem=8GB
%nprocshared=4
# B3LYP/6-311++G(d,p) empiricaldispersion=gd3bj scf=xqc pop=npa geom=check

CID_142214452_JID_3193_Energie_neutraal

0 1

--Link1--
%chk=JID_3193.chk
%mem=8GB
%nprocshared=4
# B3LYP/6-311++G(d,p) empiricaldispersion=gd3bj scf=xqc pop=npa geom=check

CID_142214452_JID_3193_Energie_kation

1 2

--Link1--
%chk=JID_3193.chk
%mem=8GB
%nprocshared=4
# B3LYP/6-311++G(d,p) empiricaldispersion=gd3bj scf=xqc pop=npa geom=check

CID_142214452_JID_3193_Energie_anion

-1 2
