%chk=JID_10290.chk
%mem=8GB
%nprocshared=4
# opt freq B3LYP/6-31G(d) empiricaldispersion=gd3bj scf=xqc

CID_62242155_JID_10290_neutraal

0 1
C          1.01869        0.08125       -0.05523
N          0.40176        0.23224       -1.36285
C          0.20965       -0.99386       -2.12230
C          0.34034        1.50856       -1.91959
O          0.61339        2.52312       -1.27171
C         -0.04572        1.64782       -3.40134
N          0.97343        1.08192       -4.30344
C          0.57978        1.19900       -5.70179
C          2.36429        1.48062       -4.04220
C          2.88055        2.78847       -4.60979
C          4.09051        2.79355       -5.31641
C          4.64265        4.00267       -5.78160
C          4.01682        5.24318       -5.60840
C          2.82473        5.21635       -4.86067
C          2.27387        4.02253       -4.36330
N          4.50907        6.52141       -5.96321
N          5.57878        6.71973       -6.83209
N          5.91985        3.89281       -6.44027
O          5.91661        3.87223       -7.68007
O          6.92229        3.79300       -5.71963
H          0.46057       -0.66182        0.52185
H          1.02937        1.02057        0.50374
H          2.04926       -0.25931       -0.19370
H         -0.49573       -0.85956       -2.94346
H          1.17640       -1.31591       -2.51980
H         -0.18791       -1.76899       -1.46011
H         -1.01145        1.14855       -3.54450
H         -0.23046        2.70639       -3.60956
H          0.47327        2.24061       -6.02322
H          1.30592        0.70421       -6.35600
H         -0.38042        0.69763       -5.86929
H          2.60402        1.45896       -2.97291
H          2.97756        0.66914       -4.45827
H          4.62798        1.86047       -5.48248
H          2.31090        6.14779       -4.62505
H          1.37758        4.09097       -3.75320
H          3.76847        7.22705       -6.02641
H          6.47722        6.49530       -6.39400
H          5.50959        6.16528       -7.69258

--Link1--
%chk=JID_10290.chk
%mem=8GB
%nprocshared=4
# B3LYP/6-311++G(d,p) empiricaldispersion=gd3bj scf=xqc pop=npa geom=check

CID_62242155_JID_10290_Energie_neutraal

0 1

--Link1--
%chk=JID_10290.chk
%mem=8GB
%nprocshared=4
# B3LYP/6-311++G(d,p) empiricaldispersion=gd3bj scf=xqc pop=npa geom=check

CID_62242155_JID_10290_Energie_kation

1 2

--Link1--
%chk=JID_10290.chk
%mem=8GB
%nprocshared=4
# B3LYP/6-311++G(d,p) empiricaldispersion=gd3bj scf=xqc pop=npa geom=check

CID_62242155_JID_10290_Energie_anion

-1 2
