%chk=JID_9148.chk
%mem=8GB
%nprocshared=4
# opt freq B3LYP/6-31G(d) empiricaldispersion=gd3bj scf=xqc

CID_102536461_JID_9148_neutraal

0 1
C          1.30600        0.17900       -0.14100
C          1.00785       -0.91207        0.87770
C         -0.51791       -1.03454        0.84551
N         -0.96115        0.26226        0.36435
C          0.14325        1.14835        0.05512
C         -2.17414        0.77265        0.74252
N         -2.41733        2.07776        0.53279
C         -3.62667        2.55384        0.89175
C         -4.62404        1.78732        1.44932
C         -4.27383        0.47052        1.64049
N         -3.07944       -0.05222        1.29351
C         -5.93543        2.36744        1.88014
N         -7.05844        1.49235        1.54191
C         -8.33633        2.00122        2.04795
C         -8.85742        3.15663        1.24356
C         -9.35293        3.14510       -0.04713
C         -9.76573        4.43705       -0.48262
C         -9.57995        5.39211        0.49099
S         -8.91650        4.73104        1.92095
H          2.27907        0.65264        0.01505
H          1.28290       -0.23982       -1.15436
H          1.33360       -0.58808        1.87368
H          1.50780       -1.85723        0.64796
H         -0.82861       -1.81526        0.14247
H         -0.88961       -1.28825        1.84477
H          0.35360        1.82265        0.89449
H         -0.03291        1.74005       -0.84926
H         -3.76300        3.61567        0.70638
H         -4.96450       -0.23643        2.09269
H         -5.88937        2.52883        2.96422
H         -6.06657        3.34521        1.40234
H         -7.11625        1.39524        0.52872
H         -9.06805        1.18643        1.98119
H         -8.26072        2.24259        3.11529
H         -9.41767        2.24844       -0.65237
H        -10.18143        4.65410       -1.45911
H         -9.80673        6.44805        0.43441

--Link1--
%chk=JID_9148.chk
%mem=8GB
%nprocshared=4
# B3LYP/6-311++G(d,p) empiricaldispersion=gd3bj scf=xqc pop=npa geom=check

CID_102536461_JID_9148_Energie_neutraal

0 1

--Link1--
%chk=JID_9148.chk
%mem=8GB
%nprocshared=4
# B3LYP/6-311++G(d,p) empiricaldispersion=gd3bj scf=xqc pop=npa geom=check

CID_102536461_JID_9148_Energie_kation

1 2

--Link1--
%chk=JID_9148.chk
%mem=8GB
%nprocshared=4
# B3LYP/6-311++G(d,p) empiricaldispersion=gd3bj scf=xqc pop=npa geom=check

CID_102536461_JID_9148_Energie_anion

-1 2
