%chk=JID_8258.chk
%mem=8GB
%nprocshared=4
# opt freq B3LYP/6-31G(d) empiricaldispersion=gd3bj scf=xqc

CID_115655711_JID_8258_neutraal

0 1
C          1.05519        0.05815        0.05977
C          1.25467        1.21334       -0.90122
O          1.84237        0.79531       -2.12780
C          3.26305        0.92235       -2.29793
C          3.78345        2.32658       -1.99538
C          4.06614       -0.16245       -1.54555
N          3.67699       -1.49729       -2.01449
C          4.27841       -2.58421       -1.24760
C          3.58015       -2.85218        0.06472
C          4.16083       -2.46338        1.27991
C          3.49309       -2.68809        2.48556
C          2.25268       -3.32348        2.48808
C          1.64858       -3.68429        1.28840
C          2.31662       -3.46468        0.08194
O          1.60122       -3.46664        3.67904
C          1.61993       -4.78416        4.25998
C          0.55371       -5.69566        3.65850
C          2.99509       -5.45154        4.29686
H          0.63184       -0.81010       -0.45423
H          0.38393        0.34919        0.87352
H          1.99902       -0.24979        0.51106
H          0.26498        1.60488       -1.16202
H          1.79536        2.03296       -0.42306
H          3.42502        0.75987       -3.37173
H          3.82641        2.52069       -0.91894
H          4.79693        2.45530       -2.38917
H          3.13490        3.08611       -2.44394
H          5.13617       -0.01516       -1.73391
H          3.90309       -0.05819       -0.47008
H          2.65798       -1.56595       -1.99206
H          4.22335       -3.49970       -1.84991
H          5.35009       -2.40714       -1.09222
H          5.12906       -1.96868        1.29310
H          3.93814       -2.36504        3.42221
H          0.65281       -4.11532        1.27848
H          1.83726       -3.75329       -0.85124
H          1.32943       -4.61636        5.30482
H          0.83184       -6.03622        2.65653
H          0.40982       -6.58589        4.27946
H         -0.40307       -5.17001        3.57385
H          3.73894       -4.78114        4.73964
H          2.96342       -6.37141        4.88982
H          3.34541       -5.71405        3.29302

--Link1--
%chk=JID_8258.chk
%mem=8GB
%nprocshared=4
# B3LYP/6-311++G(d,p) empiricaldispersion=gd3bj scf=xqc pop=npa geom=check

CID_115655711_JID_8258_Energie_neutraal

0 1

--Link1--
%chk=JID_8258.chk
%mem=8GB
%nprocshared=4
# B3LYP/6-311++G(d,p) empiricaldispersion=gd3bj scf=xqc pop=npa geom=check

CID_115655711_JID_8258_Energie_kation

1 2

--Link1--
%chk=JID_8258.chk
%mem=8GB
%nprocshared=4
# B3LYP/6-311++G(d,p) empiricaldispersion=gd3bj scf=xqc pop=npa geom=check

CID_115655711_JID_8258_Energie_anion

-1 2
