%chk=JID_8863.chk
%mem=8GB
%nprocshared=4
# opt freq B3LYP/6-31G(d) empiricaldispersion=gd3bj scf=xqc

CID_72011160_JID_8863_neutraal

0 1
C          1.08909        0.04395        0.01146
C          0.57443        0.54891        1.35858
C          1.06225        1.97122        1.62919
C         -0.90982        0.44354        1.40828
N         -1.65441       -0.54690        1.85061
N         -2.96060       -0.19169        1.59092
C         -2.92332        0.98671        1.01436
O         -1.65155        1.46740        0.87961
N         -3.90818        1.80052        0.55680
C         -5.23060        1.49548        0.46755
O         -6.01014        2.40559        0.16010
C         -5.75215        0.08852        0.70982
S         -5.31297       -1.03565       -0.65321
C         -6.05074       -0.21971       -2.01911
C         -7.39150       -0.21206       -2.33614
C         -7.66096        0.54598       -3.51412
C         -6.51365        1.08219       -4.05558
S         -5.12202        0.65795       -3.15534
H          0.70600        0.65009       -0.81759
H          0.77767       -0.99194       -0.16473
H          2.18329        0.07538       -0.02364
H          0.98311       -0.09971        2.14379
H          0.72748        2.66948        0.85350
H          0.68857        2.33846        2.59146
H          2.15669        2.00556        1.65824
H         -3.64076        2.72811        0.26453
H         -5.39284       -0.30001        1.66551
H         -6.84402        0.13485        0.79089
H         -8.14918       -0.72279       -1.75472
H         -8.64590        0.69019       -3.94081
H         -6.42241        1.69817       -4.93956

--Link1--
%chk=JID_8863.chk
%mem=8GB
%nprocshared=4
# B3LYP/6-311++G(d,p) empiricaldispersion=gd3bj scf=xqc pop=npa geom=check

CID_72011160_JID_8863_Energie_neutraal

0 1

--Link1--
%chk=JID_8863.chk
%mem=8GB
%nprocshared=4
# B3LYP/6-311++G(d,p) empiricaldispersion=gd3bj scf=xqc pop=npa geom=check

CID_72011160_JID_8863_Energie_kation

1 2

--Link1--
%chk=JID_8863.chk
%mem=8GB
%nprocshared=4
# B3LYP/6-311++G(d,p) empiricaldispersion=gd3bj scf=xqc pop=npa geom=check

CID_72011160_JID_8863_Energie_anion

-1 2
