%chk=JID_10617.chk
%mem=8GB
%nprocshared=4
# opt freq B3LYP/6-31G(d) empiricaldispersion=gd3bj scf=xqc

CID_61524897_JID_10617_neutraal

0 1
C          2.19200       -0.00900       -0.03500
N          1.24786        0.75661        0.74431
C          0.54874        0.19740        1.78965
C         -0.33214        1.13364        2.26930
C         -0.14770        2.29739        1.49402
C          0.84814        2.06402        0.54808
C          1.22868        3.00370       -0.48911
O          0.49256        3.91911       -0.85910
N          2.42592        2.87603       -1.14915
C          3.70641        2.93615       -0.46232
C          4.82346        3.02419       -1.47788
C          5.03151        4.26567       -2.11656
C          5.98115        4.41016       -3.12860
C          6.74443        3.31814       -3.52234
C          6.56257        2.08624       -2.89629
C          5.60992        1.92896       -1.87737
C          5.49970        0.62281       -1.29591
C          5.47927       -0.49842       -0.86360
C          5.46659       -1.87509       -0.36608
O          5.76766       -1.89753        1.02120
H          1.84634       -1.04623       -0.08676
H          2.25733        0.37492       -1.05219
H          3.14668        0.02392        0.48845
H          0.71307       -0.83080        2.08667
H         -1.04551        0.98646        3.06993
H         -0.70524        3.22279        1.58195
H          2.39063        3.52548       -1.92534
H          3.70897        3.83253        0.17112
H          3.82456        2.09341        0.21871
H          4.43465        5.13232       -1.83454
H          6.11705        5.37303       -3.61481
H          7.47974        3.42151       -4.31597
H          7.16826        1.23912       -3.21371
H          6.20987       -2.48675       -0.88533
H          4.48567       -2.33756       -0.51259
H          5.19859       -1.23874        1.45216

--Link1--
%chk=JID_10617.chk
%mem=8GB
%nprocshared=4
# B3LYP/6-311++G(d,p) empiricaldispersion=gd3bj scf=xqc pop=npa geom=check

CID_61524897_JID_10617_Energie_neutraal

0 1

--Link1--
%chk=JID_10617.chk
%mem=8GB
%nprocshared=4
# B3LYP/6-311++G(d,p) empiricaldispersion=gd3bj scf=xqc pop=npa geom=check

CID_61524897_JID_10617_Energie_kation

1 2

--Link1--
%chk=JID_10617.chk
%mem=8GB
%nprocshared=4
# B3LYP/6-311++G(d,p) empiricaldispersion=gd3bj scf=xqc pop=npa geom=check

CID_61524897_JID_10617_Energie_anion

-1 2
