%chk=JID_5498.chk
%mem=8GB
%nprocshared=4
# opt freq B3LYP/6-31G(d) empiricaldispersion=gd3bj scf=xqc

CID_65263336_JID_5498_neutraal

0 1
C         -1.23000        1.25600        0.19100
C         -0.54132       -0.11924        0.12658
C         -1.32862       -1.09385        1.00810
C         -0.48613       -0.57161       -1.35849
C          0.24319       -1.88918       -1.65064
S         -0.80485       -3.35143       -1.76964
O         -2.17775       -2.94678       -1.52145
O         -0.47675       -3.99845       -3.02806
C         -0.37480       -4.48687       -0.48165
C          1.01580       -4.28920       -0.01267
O          1.28838       -3.74409        1.04912
O          1.92513       -4.74257       -0.91066
C          3.28597       -4.52503       -0.52477
C          0.83438        0.03299        0.65721
N          1.92511        0.14450        1.03634
H         -2.25713        1.20289       -0.18768
H         -1.27272        1.63538        1.21925
H         -0.69207        2.00239       -0.40601
H         -2.34576       -1.24022        0.62918
H         -0.84182       -2.06916        1.07227
H         -1.41233       -0.71947        2.03587
H         -1.49624       -0.58348       -1.78491
H          0.05268        0.20895       -1.91639
H          0.68994       -1.80442       -2.65025
H          1.07518       -2.06108       -0.97266
H         -1.05897       -4.32998        0.35740
H         -0.51747       -5.51002       -0.83970
H          3.48904       -3.45263       -0.43884
H          3.50495       -5.03770        0.41707
H          3.93026       -4.93861       -1.30505

--Link1--
%chk=JID_5498.chk
%mem=8GB
%nprocshared=4
# B3LYP/6-311++G(d,p) empiricaldispersion=gd3bj scf=xqc pop=npa geom=check

CID_65263336_JID_5498_Energie_neutraal

0 1

--Link1--
%chk=JID_5498.chk
%mem=8GB
%nprocshared=4
# B3LYP/6-311++G(d,p) empiricaldispersion=gd3bj scf=xqc pop=npa geom=check

CID_65263336_JID_5498_Energie_kation

1 2

--Link1--
%chk=JID_5498.chk
%mem=8GB
%nprocshared=4
# B3LYP/6-311++G(d,p) empiricaldispersion=gd3bj scf=xqc pop=npa geom=check

CID_65263336_JID_5498_Energie_anion

-1 2
