%chk=JID_10793.chk
%mem=8GB
%nprocshared=4
# opt freq B3LYP/6-31G(d) empiricaldispersion=gd3bj scf=xqc

CID_61058564_JID_10793_neutraal

0 1
C          2.26000        1.82000        0.03500
C          1.05739        0.92755        0.07655
C         -0.19949        1.45655        0.35851
C         -1.36313        0.65708        0.37495
C         -1.27878       -0.72011        0.03528
C          0.02451       -1.26546       -0.19325
C          1.16047       -0.43366       -0.18498
C          0.26906       -2.73468       -0.44514
C         -2.51292       -1.64092       -0.11706
C         -3.39113       -1.76125        1.14728
O         -4.61140       -1.79420        1.22393
O         -2.67101       -1.92243        2.28392
N         -3.30187       -1.50104       -1.38618
C         -4.22725       -0.38216       -1.47666
C         -5.57258       -0.82341       -2.06628
C         -5.59684       -1.06276       -3.57098
C         -4.55895       -2.05642       -4.07976
C         -3.14157       -1.51397       -3.95114
C         -2.49293       -1.74407       -2.58229
C         -2.62811        1.38565        0.74091
H          2.22575        2.45426       -0.85639
H          2.29547        2.45504        0.92637
H          3.18877        1.24055        0.00822
H         -0.27926        2.52137        0.57730
H          2.14177       -0.85966       -0.38802
H         -0.13202       -3.33483        0.37788
H         -0.17608       -3.04750       -1.39228
H          1.33942       -2.96220       -0.50328
H         -2.15176       -2.67479       -0.17483
H         -3.35645       -2.01560        2.97725
H         -3.80339        0.46313       -2.03140
H         -4.47738        0.00128       -0.48622
H         -6.31577       -0.04764       -1.84031
H         -5.92017       -1.72819       -1.55024
H         -6.59429       -1.42851       -3.84447
H         -5.47166       -0.10411       -4.09021
H         -4.66057       -3.02369       -3.57451
H         -4.76239       -2.23326       -5.14329
H         -2.51057       -2.00883       -4.70082
H         -3.12089       -0.44569       -4.20056
H         -2.16554       -2.79069       -2.55520
H         -1.58745       -1.12679       -2.57270
H         -2.41085        2.21514        1.42502
H         -3.09460        1.80976       -0.15168
H         -3.33563        0.75420        1.27720

--Link1--
%chk=JID_10793.chk
%mem=8GB
%nprocshared=4
# B3LYP/6-311++G(d,p) empiricaldispersion=gd3bj scf=xqc pop=npa geom=check

CID_61058564_JID_10793_Energie_neutraal

0 1

--Link1--
%chk=JID_10793.chk
%mem=8GB
%nprocshared=4
# B3LYP/6-311++G(d,p) empiricaldispersion=gd3bj scf=xqc pop=npa geom=check

CID_61058564_JID_10793_Energie_kation

1 2

--Link1--
%chk=JID_10793.chk
%mem=8GB
%nprocshared=4
# B3LYP/6-311++G(d,p) empiricaldispersion=gd3bj scf=xqc pop=npa geom=check

CID_61058564_JID_10793_Energie_anion

-1 2
