%chk=JID_3434.chk
%mem=8GB
%nprocshared=4
# opt freq B3LYP/6-31G(d) empiricaldispersion=gd3bj scf=xqc

CID_141418705_JID_3434_neutraal

0 1
C          0.96936        0.07025        0.06424
C          0.56769        0.88854       -1.15283
C          0.97353        0.25071       -2.48793
C          0.34899       -1.12722       -2.77123
C         -1.17819       -1.15261       -2.74524
S          1.02890       -1.88411       -4.29382
C          0.44699       -0.84445       -5.58516
O         -0.26434        0.12521       -5.34763
N          0.83692       -1.18752       -6.88336
C          1.64152       -2.35959       -7.25294
C          0.80911       -3.61521       -7.45985
C          0.30616       -0.36635       -7.97228
C         -1.12427       -0.72375       -8.34839
H          0.41604       -0.87185        0.11573
H          0.75377        0.62987        0.98017
H          2.04013       -0.15605        0.05005
H         -0.51153        1.07521       -1.13116
H          1.05113        1.87080       -1.08308
H          0.70869        0.96276       -3.27678
H          2.06818        0.16409       -2.50496
H          0.68542       -1.81011       -1.98258
H         -1.62326       -0.39413       -3.39457
H         -1.56832       -2.13298       -3.04048
H         -1.54678       -0.96040       -1.73179
H          2.19866       -2.12767       -8.16785
H          2.39906       -2.54619       -6.48616
H          0.14512       -3.51159       -8.32221
H          1.46281       -4.47295       -7.64735
H          0.19029       -3.84132       -6.58658
H          0.33695        0.68513       -7.66231
H          0.96076       -0.45355       -8.84617
H         -1.79832       -0.63819       -7.49035
H         -1.48615       -0.05109       -9.13238
H         -1.19507       -1.74678       -8.72636

--Link1--
%chk=JID_3434.chk
%mem=8GB
%nprocshared=4
# B3LYP/6-311++G(d,p) empiricaldispersion=gd3bj scf=xqc pop=npa geom=check

CID_141418705_JID_3434_Energie_neutraal

0 1

--Link1--
%chk=JID_3434.chk
%mem=8GB
%nprocshared=4
# B3LYP/6-311++G(d,p) empiricaldispersion=gd3bj scf=xqc pop=npa geom=check

CID_141418705_JID_3434_Energie_kation

1 2

--Link1--
%chk=JID_3434.chk
%mem=8GB
%nprocshared=4
# B3LYP/6-311++G(d,p) empiricaldispersion=gd3bj scf=xqc pop=npa geom=check

CID_141418705_JID_3434_Energie_anion

-1 2
