%chk=JID_10538.chk
%mem=8GB
%nprocshared=4
# opt freq B3LYP/6-31G(d) empiricaldispersion=gd3bj scf=xqc

CID_61125631_JID_10538_neutraal

0 1
C          0.92536        0.06498       -0.01437
O          1.77941       -0.48507        0.98996
C          1.97526       -1.82472        0.80502
C          3.23647       -2.32796        0.48890
C          3.43877       -3.71350        0.39542
C          2.39546       -4.60309        0.65906
C          1.12463       -4.08822        0.92434
C          0.91979       -2.71006        1.03175
N          2.56657       -5.97370        0.43610
S          4.57889       -1.22940        0.14337
O          4.10023       -0.08056       -0.59443
O          5.36056       -1.10429        1.35353
N          5.54337       -2.09907       -0.92315
C          5.21013       -2.14004       -2.35479
C          5.85703       -0.99162       -3.13125
C          7.34180       -1.05672       -3.09968
C          8.30673       -0.31899       -2.44699
C          9.55249       -0.87706       -2.82069
C          9.26702       -1.91497       -3.67633
O          7.92550       -2.03285       -3.85046
H         -0.12188       -0.17383        0.19664
H          1.20049       -0.28019       -1.01769
H          1.03570        1.15316        0.01217
H          4.41635       -4.10481        0.12748
H          0.28168       -4.75913        1.07009
H         -0.06424       -2.33645        1.30113
H          1.89725       -6.55684        0.93014
H          3.52021       -6.29781        0.56899
H          6.52373       -2.15772       -0.64724
H          5.55284       -3.10521       -2.74632
H          4.12293       -2.11881       -2.48924
H          5.52336       -1.03564       -4.17501
H          5.52903       -0.02331       -2.73873
H          8.12940        0.51787       -1.78461
H         10.53762       -0.56027       -2.50847
H          9.87295       -2.62756       -4.21837

--Link1--
%chk=JID_10538.chk
%mem=8GB
%nprocshared=4
# B3LYP/6-311++G(d,p) empiricaldispersion=gd3bj scf=xqc pop=npa geom=check

CID_61125631_JID_10538_Energie_neutraal

0 1

--Link1--
%chk=JID_10538.chk
%mem=8GB
%nprocshared=4
# B3LYP/6-311++G(d,p) empiricaldispersion=gd3bj scf=xqc pop=npa geom=check

CID_61125631_JID_10538_Energie_kation

1 2

--Link1--
%chk=JID_10538.chk
%mem=8GB
%nprocshared=4
# B3LYP/6-311++G(d,p) empiricaldispersion=gd3bj scf=xqc pop=npa geom=check

CID_61125631_JID_10538_Energie_anion

-1 2
