%chk=JID_7757.chk
%mem=8GB
%nprocshared=4
# opt freq B3LYP/6-31G(d) empiricaldispersion=gd3bj scf=xqc

CID_102260593_JID_7757_neutraal

0 1
C         -1.43100        0.32400       -0.23100
C         -1.07138       -1.13348        0.04364
C          0.40218       -1.41819       -0.24407
C          1.30810       -0.45682        0.53630
C          0.96137        1.00197        0.20699
C         -0.50866        1.29487        0.49835
C          2.76569       -0.72972        0.25622
C          3.66667       -1.01485        1.20420
O          3.31257       -1.12569        2.54604
C          4.14809       -0.48770        3.41462
O          5.21336        0.05086        3.15639
C          3.52653       -0.48116        4.76938
C          2.38248       -1.23305        5.07823
C          1.82196       -1.16679        6.35580
C          2.39832       -0.35271        7.32969
C          3.53782        0.39384        7.03204
C          4.10263        0.32940        5.75654
H         -2.46956        0.50910        0.06580
H         -1.37136        0.51198       -1.31030
H         -1.28950       -1.37004        1.09245
H         -1.70012       -1.79005       -0.56829
H          0.58609       -1.32416       -1.32240
H          0.62843       -2.45671        0.02727
H          1.10310       -0.61051        1.60440
H          1.17106        1.21338       -0.84995
H          1.58726        1.68309        0.79684
H         -0.74584        2.32275        0.20161
H         -0.68694        1.22528        1.57851
H          3.10038       -0.65928       -0.77627
H          4.71888       -1.19132        1.01648
H          1.91192       -1.87351        4.33601
H          0.93333       -1.74836        6.58974
H          1.95793       -0.29919        8.32254
H          3.98529        1.02999        7.79183
H          4.98806        0.92171        5.53254

--Link1--
%chk=JID_7757.chk
%mem=8GB
%nprocshared=4
# B3LYP/6-311++G(d,p) empiricaldispersion=gd3bj scf=xqc pop=npa geom=check

CID_102260593_JID_7757_Energie_neutraal

0 1

--Link1--
%chk=JID_7757.chk
%mem=8GB
%nprocshared=4
# B3LYP/6-311++G(d,p) empiricaldispersion=gd3bj scf=xqc pop=npa geom=check

CID_102260593_JID_7757_Energie_kation

1 2

--Link1--
%chk=JID_7757.chk
%mem=8GB
%nprocshared=4
# B3LYP/6-311++G(d,p) empiricaldispersion=gd3bj scf=xqc pop=npa geom=check

CID_102260593_JID_7757_Energie_anion

-1 2
