%chk=JID_10426.chk
%mem=8GB
%nprocshared=4
# opt freq B3LYP/6-31G(d) empiricaldispersion=gd3bj scf=xqc

CID_104094397_JID_10426_neutraal

0 1
C          1.08458       -0.05319        0.00399
C          0.56947       -1.29272        0.74430
C          1.16642       -1.33462        2.15368
C         -0.97042       -1.32784        0.83006
N         -1.57359       -1.40122       -0.50139
C         -3.03695       -1.35702       -0.47073
C         -3.52835        0.00862       -0.10095
C         -4.27472        0.32645        1.01796
N         -4.53136        1.67357        1.00895
C         -3.96082        2.25752       -0.10193
C         -3.93563        3.59280       -0.53915
C         -3.26467        3.88947       -1.72872
C         -2.65081        2.88771       -2.47091
C         -2.68784        1.55984       -2.03522
C         -3.34031        1.23277       -0.82585
C         -5.34570        2.34141        2.01277
C         -4.59539        2.63588        3.31447
C         -3.57816        3.77268        3.20893
C         -4.23239        5.07624        3.01401
C         -4.76816        6.13948        2.85655
H          0.68799        0.86662        0.44718
H          0.80715       -0.07073       -1.05426
H          2.17815       -0.00360        0.04696
H          0.91774       -2.18402        0.20617
H          0.86174       -0.46143        2.74077
H          0.84115       -2.23350        2.68794
H          2.26080       -1.34996        2.11277
H         -1.27654       -2.20654        1.41080
H         -1.31160       -0.43795        1.37218
H         -1.24909       -0.61744       -1.06217
H         -3.41325       -1.60779       -1.46937
H         -3.43148       -2.12062        0.21019
H         -4.64360       -0.30497        1.81617
H         -4.41437        4.38596        0.02553
H         -3.22684        4.91844       -2.07853
H         -2.13853        3.13540       -3.39704
H         -2.21107        0.78720       -2.63118
H         -5.78117        3.24296        1.57154
H         -6.18353        1.66508        2.22490
H         -5.33217        2.88293        4.08981
H         -4.07553        1.73094        3.65287
H         -2.99943        3.80899        4.13986
H         -2.86044        3.58119        2.40493
H         -5.24184        7.08448        2.71907

--Link1--
%chk=JID_10426.chk
%mem=8GB
%nprocshared=4
# B3LYP/6-311++G(d,p) empiricaldispersion=gd3bj scf=xqc pop=npa geom=check

CID_104094397_JID_10426_Energie_neutraal

0 1

--Link1--
%chk=JID_10426.chk
%mem=8GB
%nprocshared=4
# B3LYP/6-311++G(d,p) empiricaldispersion=gd3bj scf=xqc pop=npa geom=check

CID_104094397_JID_10426_Energie_kation

1 2

--Link1--
%chk=JID_10426.chk
%mem=8GB
%nprocshared=4
# B3LYP/6-311++G(d,p) empiricaldispersion=gd3bj scf=xqc pop=npa geom=check

CID_104094397_JID_10426_Energie_anion

-1 2
