%chk=JID_7523.chk
%mem=8GB
%nprocshared=4
# opt freq B3LYP/6-31G(d) empiricaldispersion=gd3bj scf=xqc

CID_106598358_JID_7523_neutraal

0 1
C          0.94770        0.05382        0.06610
C          0.78976        1.51873       -0.35192
C          1.73570        1.81773       -1.51495
N         -0.62555        1.73350       -0.65768
C         -0.99279        3.08852       -1.06172
C         -1.14143        3.27760       -2.58084
C         -2.21359        2.40556       -3.24784
C         -3.65281        2.84547       -2.96136
C         -4.14175        4.01987       -3.81954
C         -4.19712        3.73711       -5.32634
O         -5.04973        2.62461       -5.59171
C         -4.39588        1.51241       -5.98022
N         -3.45000        1.58571       -6.92327
N         -3.10369        0.29264       -7.04178
C         -3.83823       -0.49429       -6.21449
N         -4.68201        0.25095       -5.54004
C         -2.07851       -0.11106       -7.96543
H          0.69485       -0.63047       -0.75203
H          0.30227       -0.18400        0.91938
H          1.98022       -0.15252        0.36885
H          1.06982        2.14494        0.50390
H          1.45547        1.25868       -2.41444
H          1.74510        2.88462       -1.75880
H          2.76376        1.53974       -1.25720
H         -0.95332        1.04387       -1.32882
H         -1.94809        3.32626       -0.58160
H         -0.27944        3.82304       -0.66818
H         -1.35148        4.33459       -2.78279
H         -0.18327        3.06552       -3.06735
H         -2.02544        2.40158       -4.32567
H         -2.10246        1.36199       -2.93718
H         -4.31897        1.98932       -3.11953
H         -3.76441        3.11088       -1.90442
H         -5.15541        4.27004       -3.48144
H         -3.51952        4.90355       -3.64007
H         -4.64831        4.60425       -5.82301
H         -3.18571        3.64809       -5.73889
H         -3.73056       -1.56771       -6.14624
H         -2.44942        0.04486       -8.98127
H         -1.18711        0.49511       -7.78528
H         -1.84444       -1.16725       -7.81002

--Link1--
%chk=JID_7523.chk
%mem=8GB
%nprocshared=4
# B3LYP/6-311++G(d,p) empiricaldispersion=gd3bj scf=xqc pop=npa geom=check

CID_106598358_JID_7523_Energie_neutraal

0 1

--Link1--
%chk=JID_7523.chk
%mem=8GB
%nprocshared=4
# B3LYP/6-311++G(d,p) empiricaldispersion=gd3bj scf=xqc pop=npa geom=check

CID_106598358_JID_7523_Energie_kation

1 2

--Link1--
%chk=JID_7523.chk
%mem=8GB
%nprocshared=4
# B3LYP/6-311++G(d,p) empiricaldispersion=gd3bj scf=xqc pop=npa geom=check

CID_106598358_JID_7523_Energie_anion

-1 2
