%chk=JID_938.chk
%mem=8GB
%nprocshared=4
# opt freq B3LYP/6-31G(d) empiricaldispersion=gd3bj scf=xqc

CID_89318133_JID_938_neutraal

0 1
C          1.05370        0.08411       -0.00640
C          0.36319       -1.17166       -0.58232
C          1.41890       -2.28587       -0.80285
C          1.92599       -2.89129        0.50405
C          0.76488       -3.27338        1.40855
O         -0.09077       -2.15498        1.62908
C         -0.69188       -1.68740        0.41889
C         -0.28577       -0.84132       -1.95628
C         -1.34557        0.22774       -1.93991
C         -1.23141        1.40377       -2.57011
H          1.55615       -0.11992        0.94434
H          0.33296        0.88656        0.18459
H          1.80674        0.47055       -0.70239
H          0.97350       -3.09420       -1.39854
H          2.26731       -1.90484       -1.38461
H          2.56296       -2.16201        1.01715
H          2.54701       -3.76936        0.29610
H          1.14353       -3.60248        2.38143
H          0.18394       -4.10055        0.98388
H         -1.38680       -0.88898        0.70020
H         -1.29123       -2.49790       -0.01475
H          0.50591       -0.56349       -2.66563
H         -0.74763       -1.74914       -2.36715
H         -2.26518        0.01350       -1.39938
H         -2.03385        2.13440       -2.53238
H         -0.34107        1.66769       -3.13250

--Link1--
%chk=JID_938.chk
%mem=8GB
%nprocshared=4
# B3LYP/6-311++G(d,p) empiricaldispersion=gd3bj scf=xqc pop=npa geom=check

CID_89318133_JID_938_Energie_neutraal

0 1

--Link1--
%chk=JID_938.chk
%mem=8GB
%nprocshared=4
# B3LYP/6-311++G(d,p) empiricaldispersion=gd3bj scf=xqc pop=npa geom=check

CID_89318133_JID_938_Energie_kation

1 2

--Link1--
%chk=JID_938.chk
%mem=8GB
%nprocshared=4
# B3LYP/6-311++G(d,p) empiricaldispersion=gd3bj scf=xqc pop=npa geom=check

CID_89318133_JID_938_Energie_anion

-1 2
