%chk=JID_5948.chk
%mem=8GB
%nprocshared=4
# opt freq B3LYP/6-31G(d) empiricaldispersion=gd3bj scf=xqc

CID_71273236_JID_5948_neutraal

0 1
C          1.02264        0.05079        0.08311
C          0.65363       -1.43613       -0.03452
C          1.42765       -2.23881        1.01335
N         -0.81151       -1.56613       -0.03041
C         -1.32892       -2.71225       -0.79106
C         -1.52028       -4.02019        0.00340
N         -2.24848       -3.89554        1.26891
C         -1.72804       -2.76255        2.05481
C         -1.48125       -1.44564        1.27226
C         -3.72412       -4.09034        1.29547
C         -4.51221       -2.83317        0.88062
C         -4.16768       -5.26407        0.39261
C         -4.14515       -4.50195        2.76140
O         -3.36716       -4.79876        3.66695
N         -5.48653       -4.55784        3.03162
H          0.76428        0.46597        1.06267
H          0.51161        0.64350       -0.68411
H          2.09997        0.19023       -0.06124
H          1.02594       -1.74631       -1.01996
H          1.20079       -1.91161        2.03285
H          1.22620       -3.30940        0.93592
H          2.50612       -2.10736        0.86729
H         -2.29822       -2.41653       -1.20867
H         -0.70237       -2.91331       -1.66898
H         -0.52783       -4.41968        0.24377
H         -1.94650       -4.78007       -0.65717
H         -0.77725       -3.09055        2.49093
H         -2.36506       -2.53642        2.91747
H         -0.96029       -0.73645        1.92559
H         -2.45251       -0.97552        1.07933
H         -4.18521       -2.44627       -0.08773
H         -5.58295       -3.04554        0.77835
H         -4.42600       -2.03470        1.62502
H         -3.58541       -6.16853        0.60574
H         -5.22016       -5.52663        0.54960
H         -4.06574       -5.02387       -0.67123
H         -6.20298       -4.50578        2.32347
H         -5.74376       -4.88776        3.95301

--Link1--
%chk=JID_5948.chk
%mem=8GB
%nprocshared=4
# B3LYP/6-311++G(d,p) empiricaldispersion=gd3bj scf=xqc pop=npa geom=check

CID_71273236_JID_5948_Energie_neutraal

0 1

--Link1--
%chk=JID_5948.chk
%mem=8GB
%nprocshared=4
# B3LYP/6-311++G(d,p) empiricaldispersion=gd3bj scf=xqc pop=npa geom=check

CID_71273236_JID_5948_Energie_kation

1 2

--Link1--
%chk=JID_5948.chk
%mem=8GB
%nprocshared=4
# B3LYP/6-311++G(d,p) empiricaldispersion=gd3bj scf=xqc pop=npa geom=check

CID_71273236_JID_5948_Energie_anion

-1 2
