%chk=JID_3961.chk
%mem=8GB
%nprocshared=4
# opt freq B3LYP/6-31G(d) empiricaldispersion=gd3bj scf=xqc

CID_134484768_JID_3961_neutraal

0 1
C          0.99961        0.05290       -0.08486
C         -0.03141       -0.30640        0.98572
C          0.17860        0.57139        2.22119
C         -1.47459       -0.16203        0.48103
C         -1.82561       -1.21789       -0.54563
O         -2.09750       -2.37092       -0.20786
N         -1.78594       -0.92325       -1.87051
C         -1.60421        0.34926       -2.55504
C         -0.67525        0.21283       -3.76533
N         -1.21911       -0.73102       -4.74667
C         -0.82625       -1.94972       -4.73622
N          0.00774       -2.57181       -3.87959
N         -1.26978       -2.78831       -5.69581
H          0.85998        1.07738       -0.44535
H          0.93525       -0.62526       -0.94084
H          2.01633       -0.02601        0.31527
H          0.14054       -1.34989        1.27980
H          0.02361        1.63023        1.98722
H         -0.51863        0.29436        3.01900
H          1.19472        0.45593        2.61318
H         -2.17535       -0.30464        1.31454
H         -1.67109        0.84665        0.10957
H         -2.12151       -1.68028       -2.45553
H         -2.59962        0.67619       -2.87432
H         -1.20273        1.10354       -1.87693
H         -0.58769        1.19004       -4.25395
H          0.33913       -0.05490       -3.44747
H          0.00298       -3.58084       -3.85645
H          0.15025       -2.14153       -2.97398
H         -1.97874       -2.33526       -6.26402
H         -1.57724       -3.69592       -5.37818

--Link1--
%chk=JID_3961.chk
%mem=8GB
%nprocshared=4
# B3LYP/6-311++G(d,p) empiricaldispersion=gd3bj scf=xqc pop=npa geom=check

CID_134484768_JID_3961_Energie_neutraal

0 1

--Link1--
%chk=JID_3961.chk
%mem=8GB
%nprocshared=4
# B3LYP/6-311++G(d,p) empiricaldispersion=gd3bj scf=xqc pop=npa geom=check

CID_134484768_JID_3961_Energie_kation

1 2

--Link1--
%chk=JID_3961.chk
%mem=8GB
%nprocshared=4
# B3LYP/6-311++G(d,p) empiricaldispersion=gd3bj scf=xqc pop=npa geom=check

CID_134484768_JID_3961_Energie_anion

-1 2
