%chk=JID_3821.chk
%mem=8GB
%nprocshared=4
# opt freq B3LYP/6-31G(d) empiricaldispersion=gd3bj scf=xqc

CID_81179769_JID_3821_neutraal

0 1
C          1.01385       -0.03638        0.09211
C          0.39414        1.30686        0.45405
C          0.60163        2.30393       -0.70094
O         -0.28793        2.64275       -1.47671
N          1.87486        2.76979       -0.86549
N         -1.03674        1.15502        0.68997
C         -1.76504        1.32815        1.84418
O         -2.99592        1.28322        1.73331
C         -1.00691        1.53096        3.21471
C         -0.22748        2.84870        3.47685
C         -1.47533        3.37049        4.21597
C         -1.86732        1.90306        4.46509
N         -0.16446        0.38912        3.62924
H          0.59817       -0.42260       -0.84589
H          0.82499       -0.78520        0.86760
H          2.09745        0.05071       -0.03961
H          0.88357        1.71078        1.34148
H          2.61051        2.63168       -0.18681
H          2.02279        3.45173       -1.59973
H         -1.62404        1.14883       -0.14044
H          0.65570        2.76128        4.12194
H          0.04402        3.44242        2.59922
H         -2.17710        3.90971        3.56931
H         -1.28283        3.96961        5.10936
H         -2.93947        1.69603        4.39758
H         -1.50697        1.52220        5.42964
H         -0.72618       -0.42449        3.88883
H          0.45810        0.04912        2.90182

--Link1--
%chk=JID_3821.chk
%mem=8GB
%nprocshared=4
# B3LYP/6-311++G(d,p) empiricaldispersion=gd3bj scf=xqc pop=npa geom=check

CID_81179769_JID_3821_Energie_neutraal

0 1

--Link1--
%chk=JID_3821.chk
%mem=8GB
%nprocshared=4
# B3LYP/6-311++G(d,p) empiricaldispersion=gd3bj scf=xqc pop=npa geom=check

CID_81179769_JID_3821_Energie_kation

1 2

--Link1--
%chk=JID_3821.chk
%mem=8GB
%nprocshared=4
# B3LYP/6-311++G(d,p) empiricaldispersion=gd3bj scf=xqc pop=npa geom=check

CID_81179769_JID_3821_Energie_anion

-1 2
