%chk=JID_3212.chk
%mem=8GB
%nprocshared=4
# opt freq B3LYP/6-31G(d) empiricaldispersion=gd3bj scf=xqc

CID_80014667_JID_3212_neutraal

0 1
C          1.26600       -0.09700        0.26800
C          0.24377        0.97238        0.60421
C         -1.03077        0.20457        0.94355
C         -0.85469       -1.21617        0.37524
C          0.43628       -1.15093       -0.44493
C         -2.08570       -1.67563       -0.40905
O         -2.09499       -3.08022       -0.64899
C         -1.45977       -3.52938       -1.84847
C         -2.17638       -3.08090       -3.12696
O         -1.62340       -1.83778       -3.56807
C         -2.42809       -1.13874       -4.51954
C         -2.21896       -1.61259       -5.95878
S         -3.39365       -2.91015       -6.46694
H          1.70044       -0.51037        1.18585
H          2.07928        0.28536       -0.35526
H          0.57039        1.61815        1.42460
H          0.06762        1.60794       -0.27202
H         -1.90678        0.72189        0.53719
H         -1.16377        0.15035        2.03051
H         -0.69055       -1.91088        1.21024
H          0.23523       -0.83382       -1.47498
H          0.95912       -2.11130       -0.47367
H         -2.97152       -1.48421        0.20840
H         -2.22710       -1.09614       -1.32484
H         -0.40593       -3.24405       -1.85456
H         -1.50100       -4.62294       -1.80078
H         -1.98888       -3.82300       -3.90672
H         -3.25271       -2.98487       -2.94884
H         -3.48099       -1.12266       -4.21406
H         -2.08011       -0.10030       -4.46734
H         -2.38848       -0.77072       -6.63752
H         -1.20047       -1.98246       -6.11081
H         -2.73430       -3.94523       -5.93003

--Link1--
%chk=JID_3212.chk
%mem=8GB
%nprocshared=4
# B3LYP/6-311++G(d,p) empiricaldispersion=gd3bj scf=xqc pop=npa geom=check

CID_80014667_JID_3212_Energie_neutraal

0 1

--Link1--
%chk=JID_3212.chk
%mem=8GB
%nprocshared=4
# B3LYP/6-311++G(d,p) empiricaldispersion=gd3bj scf=xqc pop=npa geom=check

CID_80014667_JID_3212_Energie_kation

1 2

--Link1--
%chk=JID_3212.chk
%mem=8GB
%nprocshared=4
# B3LYP/6-311++G(d,p) empiricaldispersion=gd3bj scf=xqc pop=npa geom=check

CID_80014667_JID_3212_Energie_anion

-1 2
