%chk=JID_9098.chk
%mem=8GB
%nprocshared=4
# opt freq B3LYP/6-31G(d) empiricaldispersion=gd3bj scf=xqc

CID_63896684_JID_9098_neutraal

0 1
C          2.80600       -0.03700       -0.08400
N          1.44097       -0.07135        0.43620
C          0.73501        1.18319        0.13352
C         -0.71794        1.14582        0.64581
N         -1.50441        0.02988        0.07279
C         -0.79791       -1.26484        0.33000
C          0.68874       -1.20018       -0.15262
C         -1.48920       -2.47729       -0.36463
N         -0.84460       -3.74294        0.00296
C         -1.32386       -4.95360       -0.50639
C         -0.84920       -6.14572        0.05670
C         -1.24397       -7.38664       -0.45227
C         -2.03652       -7.48039       -1.60205
C         -2.52913       -6.30005       -2.15336
C         -2.15123       -5.05369       -1.63139
N         -2.50488       -8.72636       -2.05684
O         -0.76702       -8.53977        0.12658
C         -1.54753       -8.85435        1.28064
C         -2.85412        0.05497        0.64061
H          2.83489        0.09050       -1.17221
H          3.36949        0.78371        0.37350
H          3.33632       -0.96181        0.16868
H          1.24925        2.02050        0.62073
H          0.73464        1.38297       -0.94663
H         -1.19246        2.09789        0.37738
H         -0.70975        1.08455        1.74287
H         -0.78529       -1.44924        1.41454
H          0.71082       -1.13871       -1.24991
H          1.19634       -2.12998        0.13120
H         -2.53977       -2.53678       -0.06287
H         -1.45010       -2.32802       -1.45050
H         -0.63422       -3.81339        0.99662
H         -0.16383       -6.11755        0.89862
H         -3.20299       -6.33294       -3.00488
H         -2.53125       -4.16617       -2.12785
H         -1.86497       -9.46816       -1.77559
H         -2.69717       -8.74011       -3.05272
H         -1.39730       -8.11225        2.07214
H         -2.61193       -8.94071        1.03461
H         -1.20835       -9.82376        1.65803
H         -2.85827       -0.18060        1.71075
H         -3.30916        1.04357        0.50759
H         -3.51681       -0.64499        0.12376

--Link1--
%chk=JID_9098.chk
%mem=8GB
%nprocshared=4
# B3LYP/6-311++G(d,p) empiricaldispersion=gd3bj scf=xqc pop=npa geom=check

CID_63896684_JID_9098_Energie_neutraal

0 1

--Link1--
%chk=JID_9098.chk
%mem=8GB
%nprocshared=4
# B3LYP/6-311++G(d,p) empiricaldispersion=gd3bj scf=xqc pop=npa geom=check

CID_63896684_JID_9098_Energie_kation

1 2

--Link1--
%chk=JID_9098.chk
%mem=8GB
%nprocshared=4
# B3LYP/6-311++G(d,p) empiricaldispersion=gd3bj scf=xqc pop=npa geom=check

CID_63896684_JID_9098_Energie_anion

-1 2
