%chk=JID_7233.chk
%mem=8GB
%nprocshared=4
# opt freq B3LYP/6-31G(d) empiricaldispersion=gd3bj scf=xqc

CID_104997804_JID_7233_neutraal

0 1
C          0.94114       -0.08072        0.00454
C          0.37565        1.21754        0.54457
C          0.70591        2.50754       -0.21067
C         -0.71328        1.94043       -0.27513
C         -1.15476        1.36711       -1.60773
C         -1.85924        2.63387        0.43035
C          1.02809        3.82978        0.46039
C          2.50518        3.89115        0.92413
C          3.49772        3.90686       -0.19367
N          3.79413        4.95347       -0.94219
C          4.72889        4.47378       -1.80961
N          5.03586        3.18673       -1.65441
N          4.24773        2.84083       -0.61819
C          4.28371        1.48328       -0.14247
N          0.63070        4.86984       -0.50335
C          0.48043        6.17738        0.12100
C          0.29034        1.20024        2.05491
H          1.25699       -0.00172       -1.03992
H          0.19330       -0.87693        0.07978
H          1.82096       -0.38655        0.58059
H          1.28952        2.40625       -1.12442
H         -1.81544        0.50885       -1.44745
H         -1.70447        2.11999       -2.18313
H         -0.31603        1.04190       -2.23033
H         -1.58860        3.09711        1.38060
H         -2.27084        3.42435       -0.20677
H         -2.65872        1.91338        0.63449
H          0.41207        3.94062        1.35766
H          2.65708        4.80378        1.51452
H          2.70605        3.06452        1.61274
H          5.19677        5.07835       -2.57579
H          3.80527        0.84768       -0.89144
H          5.32838        1.18864       -0.01068
H          3.76424        1.39459        0.81124
H          1.36103        4.94501       -1.21809
H          1.42069        6.54220        0.54476
H          0.15436        6.90097       -0.63272
H         -0.28329        6.15682        0.90504
H         -0.41661        0.42886        2.37867
H          1.27000        0.96346        2.48443
H         -0.02714        2.14624        2.49670

--Link1--
%chk=JID_7233.chk
%mem=8GB
%nprocshared=4
# B3LYP/6-311++G(d,p) empiricaldispersion=gd3bj scf=xqc pop=npa geom=check

CID_104997804_JID_7233_Energie_neutraal

0 1

--Link1--
%chk=JID_7233.chk
%mem=8GB
%nprocshared=4
# B3LYP/6-311++G(d,p) empiricaldispersion=gd3bj scf=xqc pop=npa geom=check

CID_104997804_JID_7233_Energie_kation

1 2

--Link1--
%chk=JID_7233.chk
%mem=8GB
%nprocshared=4
# B3LYP/6-311++G(d,p) empiricaldispersion=gd3bj scf=xqc pop=npa geom=check

CID_104997804_JID_7233_Energie_anion

-1 2
