%chk=JID_6835.chk
%mem=8GB
%nprocshared=4
# opt freq B3LYP/6-31G(d) empiricaldispersion=gd3bj scf=xqc

CID_62970626_JID_6835_neutraal

0 1
C          1.05213        0.08190       -0.02398
N          0.87179       -0.98862        0.96529
C         -0.08426       -0.76832        1.98884
C         -0.06961       -1.58419        3.13449
C         -0.98572       -1.40749        4.17711
C         -1.95181       -0.39926        4.11172
C         -1.97754        0.42435        2.98215
C         -1.05492        0.24381        1.94146
C         -2.93576       -0.20671        5.23598
N         -3.82773       -1.35237        5.36610
C          1.23562       -2.26934        0.46478
C          2.53866       -2.52635        0.02673
C          2.85368       -3.78967       -0.45017
N          1.97223       -4.80733       -0.52434
C          0.72186       -4.54910       -0.08943
C          0.31438       -3.32061        0.40649
H          1.12402        1.06133        0.46422
H          0.21900        0.09867       -0.73681
H          1.97791       -0.02383       -0.60039
H          0.67876       -2.36814        3.23109
H         -0.94388       -2.06562        5.04269
H         -2.71784        1.21645        2.89632
H         -1.13544        0.90462        1.08397
H         -2.38733       -0.05569        6.17269
H         -3.53367        0.69662        5.06893
H         -4.54680       -1.13954        6.05387
H         -4.30766       -1.49708        4.47910
H          3.31051       -1.76752        0.08207
H          3.85874       -4.02258       -0.78964
H          0.02747       -5.38185       -0.15201
H         -0.71304       -3.18694        0.72692

--Link1--
%chk=JID_6835.chk
%mem=8GB
%nprocshared=4
# B3LYP/6-311++G(d,p) empiricaldispersion=gd3bj scf=xqc pop=npa geom=check

CID_62970626_JID_6835_Energie_neutraal

0 1

--Link1--
%chk=JID_6835.chk
%mem=8GB
%nprocshared=4
# B3LYP/6-311++G(d,p) empiricaldispersion=gd3bj scf=xqc pop=npa geom=check

CID_62970626_JID_6835_Energie_kation

1 2

--Link1--
%chk=JID_6835.chk
%mem=8GB
%nprocshared=4
# B3LYP/6-311++G(d,p) empiricaldispersion=gd3bj scf=xqc pop=npa geom=check

CID_62970626_JID_6835_Energie_anion

-1 2
