%chk=JID_3421.chk
%mem=8GB
%nprocshared=4
# opt freq B3LYP/6-31G(d) empiricaldispersion=gd3bj scf=xqc

CID_107898784_JID_3421_neutraal

0 1
C          0.97826       -0.07468        0.06285
C          0.22233       -1.36611       -0.22078
N          1.11125       -2.46360       -0.62148
C          1.69057       -2.28093       -1.96206
C          0.99169       -3.27788       -2.86674
C          0.74061       -4.45105       -1.93416
C          0.38553       -3.75037       -0.62347
C         -0.36806       -5.40278       -2.39227
N         -0.04900       -6.01456       -3.68150
C         -1.08136       -6.93267       -4.15461
C         -2.31485       -6.21595       -4.62188
C         -2.70405       -6.12874       -5.90407
C         -3.94060       -5.41927       -6.35194
H          1.74916       -0.23061        0.82510
H          0.28648        0.68634        0.43911
H          1.45856        0.33165       -0.83178
H         -0.29438       -1.64356        0.70700
H         -0.55030       -1.18545       -0.97879
H          2.75845       -2.52487       -1.90377
H          1.61498       -1.26565       -2.36300
H          0.04744       -2.85863       -3.23545
H          1.61053       -3.55055       -3.72702
H          1.67799       -5.00973       -1.80143
H         -0.70002       -3.60086       -0.55665
H          0.68639       -4.35498        0.23900
H         -0.49582       -6.18459       -1.63371
H         -1.31093       -4.84713       -2.45431
H          0.09465       -5.29686       -4.39046
H         -0.65499       -7.51859       -4.97752
H         -1.34639       -7.65743       -3.37579
H         -2.93206       -5.76403       -3.84913
H         -2.10060       -6.58608       -6.68529
H         -3.67781       -4.61499       -7.04588
H         -4.60492       -6.11794       -6.86931
H         -4.49240       -4.97982       -5.51482

--Link1--
%chk=JID_3421.chk
%mem=8GB
%nprocshared=4
# B3LYP/6-311++G(d,p) empiricaldispersion=gd3bj scf=xqc pop=npa geom=check

CID_107898784_JID_3421_Energie_neutraal

0 1

--Link1--
%chk=JID_3421.chk
%mem=8GB
%nprocshared=4
# B3LYP/6-311++G(d,p) empiricaldispersion=gd3bj scf=xqc pop=npa geom=check

CID_107898784_JID_3421_Energie_kation

1 2

--Link1--
%chk=JID_3421.chk
%mem=8GB
%nprocshared=4
# B3LYP/6-311++G(d,p) empiricaldispersion=gd3bj scf=xqc pop=npa geom=check

CID_107898784_JID_3421_Energie_anion

-1 2
