%chk=JID_10906.chk
%mem=8GB
%nprocshared=4
# opt freq B3LYP/6-31G(d) empiricaldispersion=gd3bj scf=xqc

CID_102608664_JID_10906_neutraal

0 1
C          0.33400        1.00600       -0.17300
C          0.35566        0.15908        1.11362
C          0.67949       -1.07007        0.21129
C         -0.05189       -0.28646       -0.91987
N          0.02271       -2.27972        0.66208
C         -1.33782       -2.44417        0.76020
C         -1.58113       -3.76967        1.04610
C         -0.33068       -4.41112        1.17934
C          0.66838       -3.45705        1.00623
C          2.08448       -3.70320        1.16074
O          2.62597       -4.79401        1.03808
O          2.73364       -2.57572        1.56028
C          4.14873       -2.75273        1.79386
C          4.86532       -1.58293        2.47582
O          5.39793       -2.44427        3.50794
C          4.57596       -3.54041        3.03982
S         -3.11908       -4.51483        1.23608
O         -3.04837       -5.73863        0.47588
O         -3.38724       -4.46895        2.65233
N         -4.27847       -3.55571        0.49145
H          1.31428        1.40585       -0.45663
H         -0.40345        1.81172       -0.20114
H          1.13400        0.42747        1.83396
H         -0.60797        0.13991        1.63601
H          1.75036       -1.17274        0.00864
H         -1.13447       -0.41840       -1.01320
H          0.38902       -0.39203       -1.91583
H         -2.03145       -1.63025        0.59696
H         -0.16364       -5.45497        1.42320
H          4.66621       -3.06846        0.87890
H          5.65951       -1.11634        1.88633
H          4.21652       -0.80963        2.89854
H          3.78069       -3.77144        3.75505
H          5.16927       -4.43744        2.84236
H         -4.67630       -4.07374       -0.29346
H         -4.98421       -3.29902        1.18310

--Link1--
%chk=JID_10906.chk
%mem=8GB
%nprocshared=4
# B3LYP/6-311++G(d,p) empiricaldispersion=gd3bj scf=xqc pop=npa geom=check

CID_102608664_JID_10906_Energie_neutraal

0 1

--Link1--
%chk=JID_10906.chk
%mem=8GB
%nprocshared=4
# B3LYP/6-311++G(d,p) empiricaldispersion=gd3bj scf=xqc pop=npa geom=check

CID_102608664_JID_10906_Energie_kation

1 2

--Link1--
%chk=JID_10906.chk
%mem=8GB
%nprocshared=4
# B3LYP/6-311++G(d,p) empiricaldispersion=gd3bj scf=xqc pop=npa geom=check

CID_102608664_JID_10906_Energie_anion

-1 2
