%chk=JID_5484.chk
%mem=8GB
%nprocshared=4
# opt freq B3LYP/6-31G(d) empiricaldispersion=gd3bj scf=xqc

CID_71383630_JID_5484_neutraal

0 1
C          0.97962        0.04919       -0.08465
C          0.03607        1.21984       -0.30871
N          0.67623        2.19040       -1.17671
C         -0.14629        3.23502       -1.58112
N         -1.05106        3.73845       -0.75539
C         -1.76940        4.73509       -1.26031
N         -1.66170        5.23003       -2.48700
C         -0.72428        4.65944       -3.24110
N          0.04844        3.65352       -2.82565
C         -0.56312        5.16159       -4.67439
C         -1.83498        4.81705       -5.46845
C         -0.35393        6.68666       -4.66796
C          0.64554        4.51275       -5.37913
O         -2.74785        5.33287       -0.49308
C         -2.79467        4.83969        0.83885
H          1.22775       -0.44291       -1.03116
H          0.51785       -0.69192        0.57503
H          1.91623        0.38181        0.37539
H         -0.89230        0.84674       -0.75840
H         -0.20630        1.66930        0.66165
H          1.07868        1.81246       -2.02854
H         -2.72265        5.29674       -5.03966
H         -1.75312        5.14799       -6.51002
H         -2.01835        3.73595       -5.47428
H          0.52949        6.96268       -4.08008
H         -0.21256        7.07040       -5.68488
H         -1.21287        7.21401       -4.23695
H          1.58033        4.72444       -4.84657
H          0.53829        3.42329       -5.44215
H          0.75562        4.88983       -6.40248
H         -3.06084        3.77708        0.86070
H         -1.85041        5.01960        1.36467
H         -3.57912        5.38768        1.37001

--Link1--
%chk=JID_5484.chk
%mem=8GB
%nprocshared=4
# B3LYP/6-311++G(d,p) empiricaldispersion=gd3bj scf=xqc pop=npa geom=check

CID_71383630_JID_5484_Energie_neutraal

0 1

--Link1--
%chk=JID_5484.chk
%mem=8GB
%nprocshared=4
# B3LYP/6-311++G(d,p) empiricaldispersion=gd3bj scf=xqc pop=npa geom=check

CID_71383630_JID_5484_Energie_kation

1 2

--Link1--
%chk=JID_5484.chk
%mem=8GB
%nprocshared=4
# B3LYP/6-311++G(d,p) empiricaldispersion=gd3bj scf=xqc pop=npa geom=check

CID_71383630_JID_5484_Energie_anion

-1 2
