%chk=JID_10372.chk
%mem=8GB
%nprocshared=4
# opt freq B3LYP/6-31G(d) empiricaldispersion=gd3bj scf=xqc

CID_81276282_JID_10372_neutraal

0 1
C          2.54100        1.06400        0.00800
C          1.28225        0.25296       -0.08072
C          0.13999        0.63402        0.63548
C         -1.05577       -0.09940        0.54320
C         -1.11581       -1.21880       -0.31150
C          0.03131       -1.58872       -1.03368
C          1.21594       -0.85923       -0.92305
N         -2.32654       -1.95874       -0.46184
C         -3.14856       -1.35862       -1.52121
C         -2.41504       -3.36192       -0.27334
C         -1.59018       -3.98818        0.68603
C         -1.62466       -5.37374        0.93356
C         -2.54204       -6.15454        0.21633
C         -3.38483       -5.55924       -0.72721
C         -3.32072       -4.18092       -0.96327
C         -2.68000       -7.60649        0.45964
S         -2.29829       -8.79037       -0.65092
N         -3.17973       -7.95046        1.68712
C         -0.70173       -5.95668        1.96580
C         -2.25037        0.33524        1.34662
H          2.53494        1.84864       -0.75479
H          2.63731        1.52972        0.99444
H          3.42360        0.43278       -0.13987
H          0.18326        1.50976        1.28064
H         -0.00198       -2.44941       -1.69734
H          2.08372       -1.16569       -1.50217
H         -2.85898       -1.73406       -2.51022
H         -4.21139       -1.56725       -1.35270
H         -3.06265       -0.26494       -1.54563
H         -0.89905       -3.37408        1.26284
H         -4.10358       -6.16000       -1.28001
H         -3.99868       -3.77486       -1.70719
H         -3.46849       -7.26081        2.37042
H         -3.32475       -8.92898        1.90602
H          0.12458       -5.27308        2.18940
H         -1.24562       -6.14628        2.89612
H         -0.25134       -6.88828        1.60907
H         -1.96372        1.03846        2.13599
H         -2.98193        0.83016        0.70089
H         -2.72039       -0.52198        1.83956

--Link1--
%chk=JID_10372.chk
%mem=8GB
%nprocshared=4
# B3LYP/6-311++G(d,p) empiricaldispersion=gd3bj scf=xqc pop=npa geom=check

CID_81276282_JID_10372_Energie_neutraal

0 1

--Link1--
%chk=JID_10372.chk
%mem=8GB
%nprocshared=4
# B3LYP/6-311++G(d,p) empiricaldispersion=gd3bj scf=xqc pop=npa geom=check

CID_81276282_JID_10372_Energie_kation

1 2

--Link1--
%chk=JID_10372.chk
%mem=8GB
%nprocshared=4
# B3LYP/6-311++G(d,p) empiricaldispersion=gd3bj scf=xqc pop=npa geom=check

CID_81276282_JID_10372_Energie_anion

-1 2
