%chk=JID_8970.chk
%mem=8GB
%nprocshared=4
# opt freq B3LYP/6-31G(d) empiricaldispersion=gd3bj scf=xqc

CID_2845702_JID_8970_neutraal

0 1
C          0.98657        0.02263        0.09647
C          0.01010        1.18041        0.33666
C         -0.27994        1.98620       -0.95276
C         -0.88267        1.16547       -2.10135
N         -1.35477        1.88506       -3.28656
C         -2.70483        2.45967       -3.17246
C         -2.78795        3.89348       -2.62458
N         -1.81330        4.78463       -3.24507
C         -0.45589        4.27183       -3.37962
C         -0.41073        2.82350       -3.90453
C         -2.03425        6.14642       -3.20285
O         -3.05149        6.69507       -2.80028
C         -1.27564        0.79647        1.05648
C         -1.94684        1.77481        1.81134
C         -3.13985        1.48035        2.47387
C         -3.68377        0.20230        2.39158
C         -3.03498       -0.77885        1.64646
C         -1.84056       -0.48473        0.98279
H          0.58648       -0.73300       -0.58627
H          1.23243       -0.47922        1.03909
H          1.92183        0.39552       -0.33526
H          0.54206        1.86364        1.01565
H         -0.93846        2.82170       -0.69955
H          0.66721        2.42428       -1.29157
H         -0.11844        0.45974       -2.45049
H         -1.69688        0.53288       -1.73087
H         -3.12536        2.47138       -4.18718
H         -3.36733        1.80317       -2.59556
H         -2.61258        3.91240       -1.54416
H         -3.79675        4.28967       -2.78915
H          0.01565        4.34980       -2.39472
H          0.10960        4.92713       -4.05228
H          0.61498        2.43861       -3.85475
H         -0.65540        2.85644       -4.97475
H         -1.19002        6.72739       -3.61033
H         -1.54092        2.78174        1.88793
H         -3.64351        2.24991        3.05299
H         -4.61254       -0.02888        2.90606
H         -3.46025       -1.77696        1.57837
H         -1.37024       -1.27436        0.40333

--Link1--
%chk=JID_8970.chk
%mem=8GB
%nprocshared=4
# B3LYP/6-311++G(d,p) empiricaldispersion=gd3bj scf=xqc pop=npa geom=check

CID_2845702_JID_8970_Energie_neutraal

0 1

--Link1--
%chk=JID_8970.chk
%mem=8GB
%nprocshared=4
# B3LYP/6-311++G(d,p) empiricaldispersion=gd3bj scf=xqc pop=npa geom=check

CID_2845702_JID_8970_Energie_kation

1 2

--Link1--
%chk=JID_8970.chk
%mem=8GB
%nprocshared=4
# B3LYP/6-311++G(d,p) empiricaldispersion=gd3bj scf=xqc pop=npa geom=check

CID_2845702_JID_8970_Energie_anion

-1 2
