%chk=JID_6963.chk
%mem=8GB
%nprocshared=4
# opt freq B3LYP/6-31G(d) empiricaldispersion=gd3bj scf=xqc

CID_43187973_JID_6963_neutraal

0 1
C          1.05785       -0.05018       -0.06431
N          0.15527        1.06952       -0.27988
C         -1.25690        0.67846       -0.23538
C         -1.80865        0.17569        1.11801
C         -1.49676        1.07922        2.32505
N         -1.67708        2.49194        2.06803
C         -2.87402        3.13406        1.72080
O         -3.95610        2.59490        1.53932
N         -2.53835        4.45706        1.58765
C         -3.32866        5.52035        1.25190
C         -2.77323        6.73915        1.16357
C         -1.35281        6.90650        1.42098
C         -0.57062        5.86267        1.74549
C         -1.20385        4.53055        1.83512
N         -0.63506        3.39940        2.12427
O         -3.22344       -0.04092        1.00197
H          0.88669       -0.84512       -0.79723
H          0.96315       -0.46539        0.94339
H          2.09106        0.28986       -0.18582
H          0.32884        1.80047        0.41622
H         -1.85090        1.54128       -0.56208
H         -1.45399       -0.08179       -1.00290
H         -1.38664       -0.81392        1.32745
H         -2.16065        0.82025        3.15764
H         -0.46164        0.92865        2.65088
H         -4.38001        5.32393        1.07019
H         -3.36261        7.61128        0.89944
H         -0.93759        7.90667        1.34030
H          0.48944        5.94352        1.94171
H         -3.67253        0.83078        1.04068

--Link1--
%chk=JID_6963.chk
%mem=8GB
%nprocshared=4
# B3LYP/6-311++G(d,p) empiricaldispersion=gd3bj scf=xqc pop=npa geom=check

CID_43187973_JID_6963_Energie_neutraal

0 1

--Link1--
%chk=JID_6963.chk
%mem=8GB
%nprocshared=4
# B3LYP/6-311++G(d,p) empiricaldispersion=gd3bj scf=xqc pop=npa geom=check

CID_43187973_JID_6963_Energie_kation

1 2

--Link1--
%chk=JID_6963.chk
%mem=8GB
%nprocshared=4
# B3LYP/6-311++G(d,p) empiricaldispersion=gd3bj scf=xqc pop=npa geom=check

CID_43187973_JID_6963_Energie_anion

-1 2
