%chk=JID_7943.chk
%mem=8GB
%nprocshared=4
# opt freq B3LYP/6-31G(d) empiricaldispersion=gd3bj scf=xqc

CID_120534921_JID_7943_neutraal

0 1
C          0.93776       -0.05866        0.05182
C          0.30170       -1.23964       -0.67206
C          0.32298       -2.54358        0.14880
C         -0.36821       -2.49943        1.51095
C         -1.85944       -2.63811        1.39875
O         -2.48470       -3.68406        1.38725
O         -2.48499       -1.45200        1.26877
N         -1.04755       -0.88624       -1.08962
C         -1.63648       -0.96672       -2.31635
O         -2.85019       -0.78296       -2.40403
C         -0.78978       -1.27900       -3.53093
C          0.12305       -0.10917       -3.92838
C          1.35595       -0.55856       -4.72472
S          0.99264       -1.37432       -6.31173
C          0.12950        0.00326       -7.13349
C         -1.12228        0.45891       -6.39278
S         -0.77524        1.25031       -4.78563
H          0.33929        0.26798        0.90840
H          1.02481        0.80240       -0.62014
H          1.94235       -0.31028        0.40659
H          0.90606       -1.43111       -1.56319
H         -0.11297       -3.35047       -0.45471
H          1.37358       -2.81401        0.31730
H         -0.02347       -3.34602        2.11828
H         -0.11928       -1.60452        2.08885
H         -3.43333       -1.69435        1.17156
H         -1.71608       -0.66037       -0.35460
H         -0.20074       -2.17419       -3.29723
H         -1.45994       -1.57820       -4.34430
H          0.50322        0.36960       -3.02005
H          2.02700        0.28769       -4.91357
H          1.92963       -1.27346       -4.12360
H         -0.15512       -0.34771       -8.13102
H          0.83185        0.83191       -7.27750
H         -1.83095       -0.36408       -6.25586
H         -1.63476        1.21002       -7.00378

--Link1--
%chk=JID_7943.chk
%mem=8GB
%nprocshared=4
# B3LYP/6-311++G(d,p) empiricaldispersion=gd3bj scf=xqc pop=npa geom=check

CID_120534921_JID_7943_Energie_neutraal

0 1

--Link1--
%chk=JID_7943.chk
%mem=8GB
%nprocshared=4
# B3LYP/6-311++G(d,p) empiricaldispersion=gd3bj scf=xqc pop=npa geom=check

CID_120534921_JID_7943_Energie_kation

1 2

--Link1--
%chk=JID_7943.chk
%mem=8GB
%nprocshared=4
# B3LYP/6-311++G(d,p) empiricaldispersion=gd3bj scf=xqc pop=npa geom=check

CID_120534921_JID_7943_Energie_anion

-1 2
