%chk=JID_9819.chk
%mem=8GB
%nprocshared=4
# opt freq B3LYP/6-31G(d) empiricaldispersion=gd3bj scf=xqc

CID_128260186_JID_9819_neutraal

0 1
C         -2.26000       -0.06700        0.00100
C         -1.47051        0.85798        0.84325
C         -0.35183        1.61495        0.58071
C         -0.06911        2.29526        1.78924
N         -0.95077        1.97604        2.74787
N         -1.78607        1.11027        2.14863
C          1.02638        3.27040        2.05126
C          2.34765        2.55732        2.30388
O          2.92208        1.97231        1.38381
N          2.88428        2.64898        3.60313
C          1.95932        2.27384        4.69020
C          1.97961        0.74831        4.88512
O          3.31665        0.26974        5.12341
C          4.19798        0.60543        4.03114
C          4.27847        2.13487        3.85277
C          5.32060        2.58634        2.82608
C          5.59733        4.01485        3.24572
O          5.48648        4.05075        4.67345
C          4.92605        2.79278        5.09839
H         -2.13352       -1.09905        0.34308
H         -3.32495        0.18332        0.04160
H         -1.94062       -0.01386       -1.04470
H          0.19389        1.67417       -0.35164
H         -2.55492        0.72995        2.69081
H          1.17033        3.90956        1.17076
H          0.77776        3.95513        2.86830
H          0.93922        2.60474        4.49903
H          2.27614        2.77986        5.60494
H          1.37038        0.47556        5.75231
H          1.57154        0.22849        4.01056
H          3.84171        0.10464        3.12336
H          5.18061        0.18431        4.26989
H          6.23895        1.99654        2.95249
H          5.05783        2.52331        1.77121
H          4.85721        4.70727        2.83102
H          6.59451        4.35105        2.94785
H          4.26168        2.97887        5.94275
H          5.76345        2.19030        5.47227

--Link1--
%chk=JID_9819.chk
%mem=8GB
%nprocshared=4
# B3LYP/6-311++G(d,p) empiricaldispersion=gd3bj scf=xqc pop=npa geom=check

CID_128260186_JID_9819_Energie_neutraal

0 1

--Link1--
%chk=JID_9819.chk
%mem=8GB
%nprocshared=4
# B3LYP/6-311++G(d,p) empiricaldispersion=gd3bj scf=xqc pop=npa geom=check

CID_128260186_JID_9819_Energie_kation

1 2

--Link1--
%chk=JID_9819.chk
%mem=8GB
%nprocshared=4
# B3LYP/6-311++G(d,p) empiricaldispersion=gd3bj scf=xqc pop=npa geom=check

CID_128260186_JID_9819_Energie_anion

-1 2
