%chk=JID_10093.chk
%mem=8GB
%nprocshared=4
# opt freq B3LYP/6-31G(d) empiricaldispersion=gd3bj scf=xqc

CID_116862726_JID_10093_neutraal

0 1
C         -3.57200       -0.78000        0.01700
C         -2.17389       -0.23809        0.04623
C         -1.08647       -1.07962       -0.22459
C          0.23354       -0.59959       -0.17709
C          0.46874        0.74785        0.16670
C         -0.62389        1.58194        0.44915
C         -1.93140        1.09329        0.39253
C          1.79125        1.22611        0.21899
C          2.89519        0.40393       -0.07865
C          2.63157       -0.93225       -0.42309
C          1.32475       -1.42973       -0.46534
C          4.27178        0.92460       -0.03381
N          4.52028        1.97591        0.76249
C          5.79618        2.40687        0.78700
C          6.80497        1.85807        0.03048
C          6.43995        0.80690       -0.77131
N          5.19734        0.31740       -0.80132
N          7.38337        0.16472       -1.56864
C          6.06769        3.50433        1.67176
N          6.32781        4.39315        2.37366
H         -3.70178       -1.46653       -0.82620
H         -3.78623       -1.31319        0.94837
H         -4.30596        0.02392       -0.10208
H         -1.27219       -2.12171       -0.47841
H         -0.46484        2.62421        0.71729
H         -2.75771        1.76269        0.62088
H          1.96593        2.26764        0.48822
H          3.45485       -1.60648       -0.65527
H          1.16864       -2.47328       -0.72962
H          7.82365        2.21972        0.07151
H          7.88298        0.80595       -2.17513
H          6.90078       -0.55332       -2.10540

--Link1--
%chk=JID_10093.chk
%mem=8GB
%nprocshared=4
# B3LYP/6-311++G(d,p) empiricaldispersion=gd3bj scf=xqc pop=npa geom=check

CID_116862726_JID_10093_Energie_neutraal

0 1

--Link1--
%chk=JID_10093.chk
%mem=8GB
%nprocshared=4
# B3LYP/6-311++G(d,p) empiricaldispersion=gd3bj scf=xqc pop=npa geom=check

CID_116862726_JID_10093_Energie_kation

1 2

--Link1--
%chk=JID_10093.chk
%mem=8GB
%nprocshared=4
# B3LYP/6-311++G(d,p) empiricaldispersion=gd3bj scf=xqc pop=npa geom=check

CID_116862726_JID_10093_Energie_anion

-1 2
