%chk=JID_6464.chk
%mem=8GB
%nprocshared=4
# opt freq B3LYP/6-31G(d) empiricaldispersion=gd3bj scf=xqc

CID_115732469_JID_6464_neutraal

0 1
C          0.97819       -0.01843       -0.09584
O          0.15430       -0.04345       -1.26097
C          0.50471        0.87255       -2.20393
O          1.38876        1.71099       -2.08240
C         -0.35971        0.73431       -3.43058
C          0.48988        0.42162       -4.65411
S          0.34426       -1.28495       -5.31519
C          0.68411       -2.32060       -3.84436
C          2.16850       -2.56602       -3.53386
N          2.90400       -1.33491       -3.23983
C          4.21547       -1.57511       -2.63254
C          5.19269       -2.21099       -3.56544
C          5.82487       -1.67374       -4.67068
N          6.69648       -2.51416       -5.33536
C          6.72339       -3.67784       -4.72515
S          5.72528       -3.82912       -3.33976
H          0.65948       -0.83197        0.56164
H          0.85311        0.92861        0.43811
H          2.02836       -0.17966       -0.35897
H         -1.16255        0.00753       -3.26817
H         -0.85383        1.70600       -3.55694
H          0.14383        1.06014       -5.47537
H          1.54537        0.66814       -4.51459
H          0.15826       -1.93048       -2.97142
H          0.22586       -3.29425       -4.05374
H          2.20935       -3.23673       -2.66649
H          2.62974       -3.09613       -4.37571
H          3.03394       -0.81968       -4.11063
H          4.62024       -0.60344       -2.32291
H          4.10054       -2.15235       -1.70700
H          5.68407       -0.66467       -5.04000
H          7.34042       -4.49706       -5.07045

--Link1--
%chk=JID_6464.chk
%mem=8GB
%nprocshared=4
# B3LYP/6-311++G(d,p) empiricaldispersion=gd3bj scf=xqc pop=npa geom=check

CID_115732469_JID_6464_Energie_neutraal

0 1

--Link1--
%chk=JID_6464.chk
%mem=8GB
%nprocshared=4
# B3LYP/6-311++G(d,p) empiricaldispersion=gd3bj scf=xqc pop=npa geom=check

CID_115732469_JID_6464_Energie_kation

1 2

--Link1--
%chk=JID_6464.chk
%mem=8GB
%nprocshared=4
# B3LYP/6-311++G(d,p) empiricaldispersion=gd3bj scf=xqc pop=npa geom=check

CID_115732469_JID_6464_Energie_anion

-1 2
