%chk=JID_10654.chk
%mem=8GB
%nprocshared=4
# opt freq B3LYP/6-31G(d) empiricaldispersion=gd3bj scf=xqc

CID_152631435_JID_10654_neutraal

0 1
C          1.34400       -0.22500        0.03600
C          0.91284        1.05265       -0.30988
C         -0.45050        1.31643       -0.41292
C         -1.39233        0.30256       -0.17234
C         -0.94630       -0.97647        0.18260
C          0.41923       -1.23926        0.28157
C         -2.86664        0.61607       -0.25635
N         -3.26730        1.36215        0.93356
C         -3.99518        2.54444        0.76798
C         -3.85172        3.57139        1.71175
C         -4.57916        4.76004        1.60643
C         -5.48770        4.92763        0.56496
C         -5.67877        3.89732       -0.35354
C         -4.95189        2.70925       -0.23958
C         -6.64076        4.03803       -1.39904
C         -7.55982        4.15883       -2.31597
C         -8.63124        4.29966       -3.38491
N         -9.32209        5.56009       -3.12643
N        -10.27060        5.49662       -2.32570
N        -11.14586        5.43687       -1.59835
H          2.40807       -0.43316        0.11720
H          1.63675        1.84155       -0.49535
H         -0.78368        2.31938       -0.67386
H         -1.65932       -1.77168        0.38808
H          0.76332       -2.23355        0.55436
H         -3.03314        1.16172       -1.19346
H         -3.45439       -0.30711       -0.31603
H         -2.50042        1.46808        1.59396
H         -3.15657        3.45732        2.54012
H         -4.43980        5.54876        2.34073
H         -6.05556        5.85113        0.48619
H         -5.15347        1.90540       -0.94184
H         -8.15661        4.33860       -4.37033
H         -9.30943        3.43893       -3.36329

--Link1--
%chk=JID_10654.chk
%mem=8GB
%nprocshared=4
# B3LYP/6-311++G(d,p) empiricaldispersion=gd3bj scf=xqc pop=npa geom=check

CID_152631435_JID_10654_Energie_neutraal

0 1

--Link1--
%chk=JID_10654.chk
%mem=8GB
%nprocshared=4
# B3LYP/6-311++G(d,p) empiricaldispersion=gd3bj scf=xqc pop=npa geom=check

CID_152631435_JID_10654_Energie_kation

1 2

--Link1--
%chk=JID_10654.chk
%mem=8GB
%nprocshared=4
# B3LYP/6-311++G(d,p) empiricaldispersion=gd3bj scf=xqc pop=npa geom=check

CID_152631435_JID_10654_Energie_anion

-1 2
