%chk=JID_6235.chk
%mem=8GB
%nprocshared=4
# opt freq B3LYP/6-31G(d) empiricaldispersion=gd3bj scf=xqc

CID_1254470_JID_6235_neutraal

0 1
C          1.08389       -0.04938       -0.02291
C          0.74289       -0.23828        1.41065
N          0.60710       -1.40751        2.00688
C          0.31986       -1.12418        3.32506
C          0.26477        0.23726        3.53115
N          0.53674        0.79232        2.30575
C          0.51230        2.22010        2.01198
C          1.88503        2.75897        1.81461
N          2.85732        2.69870        2.69926
N          4.01241        3.29797        2.24020
C          3.87947        3.80367        1.03556
S          2.31372        3.58090        0.36562
N          4.85454        4.43227        0.35615
N          0.09783       -2.17415        4.29468
O          0.20608       -3.34752        3.91438
O         -0.19845       -1.81336        5.44450
H          0.40940        0.66568       -0.50244
H          0.99762       -0.99894       -0.56097
H          2.11392        0.30255       -0.12923
H          0.06544        0.82597        4.41676
H         -0.13428        2.35899        1.13889
H          0.03409        2.72698        2.85799
H          5.79839        4.29903        0.70463
H          4.78703        4.48929       -0.65244

--Link1--
%chk=JID_6235.chk
%mem=8GB
%nprocshared=4
# B3LYP/6-311++G(d,p) empiricaldispersion=gd3bj scf=xqc pop=npa geom=check

CID_1254470_JID_6235_Energie_neutraal

0 1

--Link1--
%chk=JID_6235.chk
%mem=8GB
%nprocshared=4
# B3LYP/6-311++G(d,p) empiricaldispersion=gd3bj scf=xqc pop=npa geom=check

CID_1254470_JID_6235_Energie_kation

1 2

--Link1--
%chk=JID_6235.chk
%mem=8GB
%nprocshared=4
# B3LYP/6-311++G(d,p) empiricaldispersion=gd3bj scf=xqc pop=npa geom=check

CID_1254470_JID_6235_Energie_anion

-1 2
