%chk=JID_5803.chk
%mem=8GB
%nprocshared=4
# opt freq B3LYP/6-31G(d) empiricaldispersion=gd3bj scf=xqc

CID_75356017_JID_5803_neutraal

0 1
C          2.49600       -0.00700       -0.12600
C          0.99221       -0.15805        0.11657
C          0.23449        1.10672       -0.31494
C         -1.26262        0.98168       -0.04487
C         -1.85372       -0.27274       -0.67864
C         -1.09995       -1.53342       -0.25339
C          0.41058       -1.44219       -0.52692
N          0.63991       -1.46408       -1.97516
C          0.97482       -2.62619       -2.66335
C          1.47922       -2.55394       -3.96555
N          1.79977       -3.61209       -4.75295
C          1.58253       -4.84134       -4.24068
C          1.04561       -5.03148       -2.97342
C          0.73238       -3.91514       -2.19269
C          1.92795       -6.01932       -5.10011
H          2.72672        0.19250       -1.17700
H          2.89544        0.82636        0.46218
H          3.03103       -0.91351        0.17564
H          0.85988       -0.25912        1.20368
H          0.62377        1.97649        0.22807
H          0.39703        1.30602       -1.38113
H         -1.78120        1.86788       -0.42784
H         -1.43481        0.95647        1.03834
H         -1.83054       -0.17681       -1.77089
H         -2.90792       -0.36429       -0.39297
H         -1.53548       -2.39949       -0.76515
H         -1.25666       -1.69274        0.82120
H          0.91236       -2.29196       -0.04755
H          1.07521       -0.62869       -2.35447
H          1.65193       -1.58985       -4.43637
H          0.86103       -6.03069       -2.59293
H          0.28758       -4.08378       -1.21785
H          2.35427       -5.69401       -6.05456
H          2.66530       -6.65205       -4.59635
H          1.03079       -6.60964       -5.31060

--Link1--
%chk=JID_5803.chk
%mem=8GB
%nprocshared=4
# B3LYP/6-311++G(d,p) empiricaldispersion=gd3bj scf=xqc pop=npa geom=check

CID_75356017_JID_5803_Energie_neutraal

0 1

--Link1--
%chk=JID_5803.chk
%mem=8GB
%nprocshared=4
# B3LYP/6-311++G(d,p) empiricaldispersion=gd3bj scf=xqc pop=npa geom=check

CID_75356017_JID_5803_Energie_kation

1 2

--Link1--
%chk=JID_5803.chk
%mem=8GB
%nprocshared=4
# B3LYP/6-311++G(d,p) empiricaldispersion=gd3bj scf=xqc pop=npa geom=check

CID_75356017_JID_5803_Energie_anion

-1 2
