%chk=JID_10325.chk
%mem=8GB
%nprocshared=4
# opt freq B3LYP/6-31G(d) empiricaldispersion=gd3bj scf=xqc

CID_128666776_JID_10325_neutraal

0 1
C          1.08438       -0.01053        0.05262
C          0.42556       -0.60509        1.30140
C         -1.06555       -0.18553        1.42182
N         -1.93986       -0.87948        0.46560
C         -1.80678       -2.33178        0.63369
C         -0.35045       -2.80178        0.47763
N          0.59596       -2.07214        1.33631
C          1.72320       -2.75945        1.69005
O          1.91238       -3.92727        1.32750
N          2.69733       -2.26036        2.46765
C          2.87792       -1.10471        3.33214
C          2.16008       -1.18023        4.70472
C          2.51833        0.06073        5.54156
C          1.23394        0.86420        5.60785
C          0.17826       -0.21847        5.61415
N          0.68275       -1.16662        4.61677
C          0.09374       -2.48923        4.80810
C         -3.32967       -0.39535        0.47154
C         -4.30311       -0.89832        1.55414
O         -3.93414       -0.48016        2.86129
H          1.00955        1.08193        0.05909
H          0.61756       -0.37383       -0.86855
H          2.14674       -0.27354        0.01043
H          0.90422       -0.15915        2.16297
H         -1.38300       -0.38843        2.44931
H         -1.13615        0.89947        1.27564
H         -2.41872       -2.85199       -0.11260
H         -2.16089       -2.63925        1.62567
H         -0.01873       -2.67514       -0.56042
H         -0.31565       -3.87532        0.69641
H          3.38877       -2.98721        2.59828
H          3.95842       -1.07352        3.52690
H          2.67090       -0.18057        2.79221
H          2.51998       -2.07079        5.23790
H          3.34236        0.65397        5.13281
H          2.80063       -0.25219        6.55483
H          1.13494        1.49850        4.71840
H          1.18836        1.50246        6.49482
H         -0.80663        0.17161        5.33968
H          0.11464       -0.66767        6.61361
H          0.47393       -3.20900        4.07881
H          0.29480       -2.89060        5.80814
H         -0.99200       -2.44164        4.66914
H         -3.31947        0.70194        0.49047
H         -3.76278       -0.66631       -0.49985
H         -5.29684       -0.48392        1.35344
H         -4.40463       -1.98822        1.54212
H         -3.17377       -1.02585        3.12420

--Link1--
%chk=JID_10325.chk
%mem=8GB
%nprocshared=4
# B3LYP/6-311++G(d,p) empiricaldispersion=gd3bj scf=xqc pop=npa geom=check

CID_128666776_JID_10325_Energie_neutraal

0 1

--Link1--
%chk=JID_10325.chk
%mem=8GB
%nprocshared=4
# B3LYP/6-311++G(d,p) empiricaldispersion=gd3bj scf=xqc pop=npa geom=check

CID_128666776_JID_10325_Energie_kation

1 2

--Link1--
%chk=JID_10325.chk
%mem=8GB
%nprocshared=4
# B3LYP/6-311++G(d,p) empiricaldispersion=gd3bj scf=xqc pop=npa geom=check

CID_128666776_JID_10325_Energie_anion

-1 2
