%chk=JID_9674.chk
%mem=8GB
%nprocshared=4
# opt freq B3LYP/6-31G(d) empiricaldispersion=gd3bj scf=xqc

CID_61493009_JID_9674_neutraal

0 1
C         -2.74000        0.80100        0.09200
C         -2.91728       -0.45475       -0.51848
C         -1.84669       -1.34601       -0.65980
C         -0.61468       -0.96425       -0.16517
C         -0.45147        0.29819        0.40556
C         -1.48555        1.20100        0.55036
C          0.94924        0.42452        0.80359
O          1.48045        1.38376        1.31251
C          1.60042       -0.93444        0.44984
O          2.74880       -1.24518        0.68218
N          0.58691       -1.68943       -0.13102
C          0.75749       -3.07068       -0.52201
C          0.63249       -4.04090        0.66050
C         -0.80186       -4.46652        0.98863
N         -1.47331       -5.19682       -0.06850
C         -0.97219       -6.24393       -0.79020
C         -1.96034       -6.56036       -1.69295
N         -3.05480       -5.75586       -1.51468
C         -2.74667       -4.96977       -0.50867
H         -3.58940        1.47571        0.18662
H         -3.90185       -0.73249       -0.89260
H         -2.00165       -2.29533       -1.15803
H         -1.32652        2.17327        1.00526
H          0.08616       -3.31956       -1.34910
H          1.77872       -3.15953       -0.91378
H          1.22601       -4.93529        0.43694
H          1.07701       -3.59655        1.55977
H         -0.80132       -5.12999        1.86140
H         -1.41376       -3.59476        1.24334
H          0.00927       -6.66462       -0.62304
H         -1.94288       -7.32839       -2.45573
H         -3.39963       -4.22204       -0.07708

--Link1--
%chk=JID_9674.chk
%mem=8GB
%nprocshared=4
# B3LYP/6-311++G(d,p) empiricaldispersion=gd3bj scf=xqc pop=npa geom=check

CID_61493009_JID_9674_Energie_neutraal

0 1

--Link1--
%chk=JID_9674.chk
%mem=8GB
%nprocshared=4
# B3LYP/6-311++G(d,p) empiricaldispersion=gd3bj scf=xqc pop=npa geom=check

CID_61493009_JID_9674_Energie_kation

1 2

--Link1--
%chk=JID_9674.chk
%mem=8GB
%nprocshared=4
# B3LYP/6-311++G(d,p) empiricaldispersion=gd3bj scf=xqc pop=npa geom=check

CID_61493009_JID_9674_Energie_anion

-1 2
