%chk=JID_10375.chk
%mem=8GB
%nprocshared=4
# opt freq B3LYP/6-31G(d) empiricaldispersion=gd3bj scf=xqc

CID_19138025_JID_10375_neutraal

0 1
C          1.07652        0.06393        0.00761
N          1.79606       -0.55002       -1.11711
C          1.12330       -1.78084       -1.54419
N          1.81219        0.34754       -2.22626
C          2.69063        1.46394       -2.20661
N          2.16391        2.62601       -2.63319
C          2.97071        3.69303       -2.55972
N          4.23436        3.71777       -2.11434
C          4.75061        2.54056       -1.72727
C          3.99969        1.35990       -1.72431
N          4.60620        0.10597       -1.42061
N          6.07161        2.45965       -1.23193
C          6.83441        3.70377       -1.16741
C          6.43078        4.58381        0.02754
C          6.76107        3.97453        1.37299
C          7.95524        4.29595        2.03116
C          8.25515        3.72503        3.26974
C          7.36861        2.82494        3.85900
C          6.18019        2.49491        3.21136
C          5.87754        3.06765        1.97560
H          1.03895       -0.62834        0.85613
H          0.04929        0.33947       -0.25860
H          1.59366        0.96256        0.36161
H          0.09006       -1.60130       -1.86443
H          1.66589       -2.24361       -2.37644
H          1.11051       -2.51188       -0.72826
H          0.90937        0.70882       -2.54024
H          2.55636        4.63886       -2.89268
H          5.25431        0.22520       -0.64446
H          3.84372       -0.54831       -1.20691
H          6.54164        1.72251       -1.75525
H          7.89481        3.43963       -1.07122
H          6.74520        4.26716       -2.10448
H          6.94992        5.54709       -0.05869
H          5.36171        4.82604        0.00337
H          8.65817        4.99553        1.58576
H          9.18180        3.98277        3.77542
H          7.60423        2.38018        4.82191
H          5.48866        1.79091        3.66584
H          4.94957        2.79903        1.47495

--Link1--
%chk=JID_10375.chk
%mem=8GB
%nprocshared=4
# B3LYP/6-311++G(d,p) empiricaldispersion=gd3bj scf=xqc pop=npa geom=check

CID_19138025_JID_10375_Energie_neutraal

0 1

--Link1--
%chk=JID_10375.chk
%mem=8GB
%nprocshared=4
# B3LYP/6-311++G(d,p) empiricaldispersion=gd3bj scf=xqc pop=npa geom=check

CID_19138025_JID_10375_Energie_kation

1 2

--Link1--
%chk=JID_10375.chk
%mem=8GB
%nprocshared=4
# B3LYP/6-311++G(d,p) empiricaldispersion=gd3bj scf=xqc pop=npa geom=check

CID_19138025_JID_10375_Energie_anion

-1 2
