%chk=JID_9442.chk
%mem=8GB
%nprocshared=4
# opt freq B3LYP/6-31G(d) empiricaldispersion=gd3bj scf=xqc

CID_28739257_JID_9442_neutraal

0 1
C          0.92154       -0.02648       -0.05605
N          0.11478       -0.87946        0.80599
C         -0.73708       -0.25213        1.77010
C         -1.25104        1.03568        1.54008
C         -2.06147        1.67438        2.48631
C         -2.34927        1.03336        3.68307
C         -1.83611       -0.22749        3.94704
C         -1.02921       -0.86376        2.99783
O         -3.12813        1.61692        4.63597
C          0.20551       -2.26052        0.58112
O          1.08593       -2.77890       -0.10050
C         -0.84959       -3.13541        1.05019
C         -1.74571       -3.86279        1.38502
C         -2.83765       -4.70840        1.75311
C         -4.09075       -4.51708        1.16565
C         -5.16046       -5.34263        1.51547
C         -4.97853       -6.35867        2.45321
C         -3.72822       -6.55020        3.04191
C         -2.65674       -5.72554        2.69232
H          1.31822        0.82229        0.51053
H          0.30149        0.32657       -0.88617
H          1.77355       -0.56806       -0.47760
H         -1.05786        1.55798        0.60715
H         -2.45345        2.66281        2.26838
H         -2.04939       -0.71399        4.89499
H         -0.59890       -1.82297        3.27124
H         -3.41829        2.48608        4.31438
H         -4.23993       -3.72780        0.43279
H         -6.13379       -5.19353        1.05549
H         -5.81141       -7.00243        2.72445
H         -3.58716       -7.34323        3.77170
H         -1.68500       -5.88422        3.15325

--Link1--
%chk=JID_9442.chk
%mem=8GB
%nprocshared=4
# B3LYP/6-311++G(d,p) empiricaldispersion=gd3bj scf=xqc pop=npa geom=check

CID_28739257_JID_9442_Energie_neutraal

0 1

--Link1--
%chk=JID_9442.chk
%mem=8GB
%nprocshared=4
# B3LYP/6-311++G(d,p) empiricaldispersion=gd3bj scf=xqc pop=npa geom=check

CID_28739257_JID_9442_Energie_kation

1 2

--Link1--
%chk=JID_9442.chk
%mem=8GB
%nprocshared=4
# B3LYP/6-311++G(d,p) empiricaldispersion=gd3bj scf=xqc pop=npa geom=check

CID_28739257_JID_9442_Energie_anion

-1 2
