%chk=JID_9210.chk
%mem=8GB
%nprocshared=4
# opt freq B3LYP/6-31G(d) empiricaldispersion=gd3bj scf=xqc

CID_103275503_JID_9210_neutraal

0 1
C          2.49200        0.00400       -0.01400
C          0.99444       -0.03036       -0.08379
C          0.32339       -1.26405       -0.10034
C         -1.08224       -1.36566       -0.16068
C         -1.78880       -0.14835       -0.20575
C         -1.13978        1.08889       -0.18886
C          0.24872        1.14768       -0.12707
C         -1.80516       -2.77848       -0.17085
C         -2.96163       -3.03935        0.83919
C         -3.59225       -3.95053       -0.23957
C         -2.84341       -3.09221       -1.28833
N         -5.02771       -3.69853       -0.38023
C         -5.80043       -4.56884        0.52622
C         -5.81708       -4.08198        1.93983
N         -6.22439       -2.91451        2.40387
C         -5.96992       -2.99197        3.74900
C         -5.41021       -4.21009        4.05289
O         -5.30720       -4.92412        2.89214
C         -4.93017       -4.85427        5.28510
H          2.83667       -0.46249        0.91442
H          2.92199       -0.53041       -0.86725
H          2.87208        1.03065       -0.03629
H          0.90998       -2.18159       -0.06419
H         -2.87618       -0.16338       -0.25362
H         -1.72222        2.00574       -0.22327
H          0.74128        2.11662       -0.11342
H         -1.05972       -3.58886       -0.10950
H         -2.66077       -3.54724        1.76063
H         -3.53446       -2.14391        1.10855
H         -3.27399       -4.99919       -0.22081
H         -3.38304       -2.21312       -1.66232
H         -2.44889       -3.64468       -2.14663
H         -5.31565       -2.73459       -0.19742
H         -6.83635       -4.58155        0.16799
H         -5.44650       -5.60508        0.47085
H         -6.19717       -2.17420        4.41863
H         -5.53915       -5.73227        5.52055
H         -3.89028       -5.17546        5.17120
H         -4.98183       -4.16550        6.13394

--Link1--
%chk=JID_9210.chk
%mem=8GB
%nprocshared=4
# B3LYP/6-311++G(d,p) empiricaldispersion=gd3bj scf=xqc pop=npa geom=check

CID_103275503_JID_9210_Energie_neutraal

0 1

--Link1--
%chk=JID_9210.chk
%mem=8GB
%nprocshared=4
# B3LYP/6-311++G(d,p) empiricaldispersion=gd3bj scf=xqc pop=npa geom=check

CID_103275503_JID_9210_Energie_kation

1 2

--Link1--
%chk=JID_9210.chk
%mem=8GB
%nprocshared=4
# B3LYP/6-311++G(d,p) empiricaldispersion=gd3bj scf=xqc pop=npa geom=check

CID_103275503_JID_9210_Energie_anion

-1 2
