%chk=JID_5874.chk
%mem=8GB
%nprocshared=4
# opt freq B3LYP/6-31G(d) empiricaldispersion=gd3bj scf=xqc

CID_123341269_JID_5874_neutraal

0 1
C          0.99370        0.07439        0.06653
C          0.96308        0.96078       -1.16733
C          1.20556        0.15499       -2.45535
C          0.01520       -0.76135       -2.76737
C          0.09717       -1.48716       -4.11002
C          1.38970       -2.26587       -4.32551
N          2.45553       -1.61801       -5.27476
C          3.40840       -0.58760       -4.52474
C          2.83539        0.83927       -4.31538
C          1.49035        1.08616       -3.63789
C          4.75222       -0.39229       -5.27484
C          1.85314       -0.98643       -6.53421
C          3.29421       -2.77980       -5.66370
C          2.90780       -3.66352       -6.59624
C          3.71347       -4.86958       -6.97141
H          0.17142       -0.64639        0.07316
H          0.89628        0.68809        0.96823
H          1.93818       -0.47455        0.13729
H          0.00619        1.49389       -1.21812
H          1.74747        1.71942       -1.05473
H          2.07849       -0.47215       -2.25457
H         -0.08110       -1.51674       -1.97830
H         -0.91700       -0.18148       -2.74893
H         -0.14718       -0.82004       -4.93828
H         -0.72532       -2.21687       -4.10301
H          1.09181       -3.21432       -4.79116
H          1.89570       -2.51761       -3.38513
H          3.63865       -1.04790       -3.55660
H          2.83437        1.38179       -5.27028
H          3.57448        1.37481       -3.69983
H          0.69238        1.05304       -4.38539
H          1.48530        2.13343       -3.30561
H          5.33628        0.40993       -4.80719
H          5.39448       -1.27582       -5.23358
H          4.60203       -0.11697       -6.32274
H          2.64534       -0.82440       -7.27091
H          1.07477       -1.64358       -6.93226
H          1.39531       -0.03063       -6.27923
H          4.21544       -2.99291       -5.11531
H          1.96727       -3.57964       -7.13197
H          3.19496       -5.77819       -6.65077
H          3.83419       -4.90734       -8.05838
H          4.71012       -4.85997       -6.51986

--Link1--
%chk=JID_5874.chk
%mem=8GB
%nprocshared=4
# B3LYP/6-311++G(d,p) empiricaldispersion=gd3bj scf=xqc pop=npa geom=check

CID_123341269_JID_5874_Energie_neutraal

0 1

--Link1--
%chk=JID_5874.chk
%mem=8GB
%nprocshared=4
# B3LYP/6-311++G(d,p) empiricaldispersion=gd3bj scf=xqc pop=npa geom=check

CID_123341269_JID_5874_Energie_kation

1 2

--Link1--
%chk=JID_5874.chk
%mem=8GB
%nprocshared=4
# B3LYP/6-311++G(d,p) empiricaldispersion=gd3bj scf=xqc pop=npa geom=check

CID_123341269_JID_5874_Energie_anion

-1 2
