%chk=JID_3463.chk
%mem=8GB
%nprocshared=4
# opt freq B3LYP/6-31G(d) empiricaldispersion=gd3bj scf=xqc

CID_117122129_JID_3463_neutraal

0 1
C          0.92525       -0.02238        0.06254
C          0.54594       -1.39107       -0.42523
C         -0.49161       -1.54063       -1.35781
C         -0.84272       -2.83753       -1.77067
C         -0.20179       -3.97612       -1.27470
C          0.82714       -3.80759       -0.32511
C          1.18558       -2.51977        0.09204
C         -0.80133       -5.11723       -1.89888
C         -1.78369       -4.63777       -2.74535
N         -1.79869       -3.27293       -2.66281
C         -2.69287       -2.41331       -3.40568
C         -0.45631       -6.55006       -1.68002
O         -1.52645       -7.25288       -1.05579
H          0.35667        0.22376        0.96459
H          0.72246        0.73617       -0.70084
H          1.99496        0.02661        0.29186
H         -1.00967       -0.67202       -1.75291
H          1.34432       -4.66818        0.08870
H          1.97737       -2.40901        0.83001
H         -2.46869       -5.17153       -3.39228
H         -3.29712       -1.84512       -2.69389
H         -2.09247       -1.74348       -4.02656
H         -3.34330       -3.02084       -4.04016
H         -0.24263       -7.03923       -2.63595
H          0.43038       -6.65864       -1.04836
H         -1.87954       -6.65274       -0.37641

--Link1--
%chk=JID_3463.chk
%mem=8GB
%nprocshared=4
# B3LYP/6-311++G(d,p) empiricaldispersion=gd3bj scf=xqc pop=npa geom=check

CID_117122129_JID_3463_Energie_neutraal

0 1

--Link1--
%chk=JID_3463.chk
%mem=8GB
%nprocshared=4
# B3LYP/6-311++G(d,p) empiricaldispersion=gd3bj scf=xqc pop=npa geom=check

CID_117122129_JID_3463_Energie_kation

1 2

--Link1--
%chk=JID_3463.chk
%mem=8GB
%nprocshared=4
# B3LYP/6-311++G(d,p) empiricaldispersion=gd3bj scf=xqc pop=npa geom=check

CID_117122129_JID_3463_Energie_anion

-1 2
