%chk=JID_8480.chk
%mem=8GB
%nprocshared=4
# opt freq B3LYP/6-31G(d) empiricaldispersion=gd3bj scf=xqc

CID_63572583_JID_8480_neutraal

0 1
C          1.05931        0.02790       -0.07552
C          0.46302       -1.24875        0.52065
C          0.88211       -1.46666        1.96041
C          0.02692       -0.67766        2.92457
C         -1.41447       -1.14211        3.08247
O         -1.76412       -1.40821        4.25293
N         -2.46873       -1.32888        2.18980
N         -3.05083       -1.32934        0.32411
N         -0.98345       -1.27881        0.39648
C         -1.86207        0.30052        0.87937
C         -3.67524        0.29497        1.62411
C         -4.61247       -1.41554        1.75683
C         -3.62685       -3.03249        1.29523
C         -1.72928       -2.89261        0.92020
C         -1.44925       -4.08482        0.01279
C         -1.82201       -5.37451        0.78049
C         -3.26334       -5.47694        1.33124
C         -3.78614       -4.27372        2.14612
H          0.81375        0.92288        0.50312
H          0.71027        0.17943       -1.10309
H          2.15215       -0.04608       -0.11037
H          0.86879       -2.07508       -0.07524
H          0.82831       -2.53282        2.21199
H          1.93443       -1.18476        2.09124
H          0.48746       -0.82176        3.91400
H          0.09590        0.40052        2.77500
H         -3.11763       -1.78034        2.83608
H         -3.60838       -0.55736       -0.03348
H         -2.19801       -1.34362       -0.26035
H         -1.93948        0.82298       -0.08873
H         -1.23598        0.92308        1.51531
H         -3.60986        0.70125        2.64458
H         -4.29332        0.96330        1.00792
H         -5.00553       -1.51090        2.77917
H         -5.45850       -1.35942        1.05602
H         -4.08873       -3.28376        0.31755
H         -1.21688       -3.13223        1.86282
H         -0.38923       -4.12332       -0.25751
H         -2.02833       -4.00896       -0.91320
H         -1.12934       -5.48660        1.62508
H         -1.64015       -6.23393        0.12371
H         -3.33556       -6.37720        1.95353
H         -3.93885       -5.64079        0.48130
H         -3.22447       -4.17623        3.08064
H         -4.83947       -4.42951        2.40052

--Link1--
%chk=JID_8480.chk
%mem=8GB
%nprocshared=4
# B3LYP/6-311++G(d,p) empiricaldispersion=gd3bj scf=xqc pop=npa geom=check

CID_63572583_JID_8480_Energie_neutraal

0 1

--Link1--
%chk=JID_8480.chk
%mem=8GB
%nprocshared=4
# B3LYP/6-311++G(d,p) empiricaldispersion=gd3bj scf=xqc pop=npa geom=check

CID_63572583_JID_8480_Energie_kation

1 2

--Link1--
%chk=JID_8480.chk
%mem=8GB
%nprocshared=4
# B3LYP/6-311++G(d,p) empiricaldispersion=gd3bj scf=xqc pop=npa geom=check

CID_63572583_JID_8480_Energie_anion

-1 2
