%chk=JID_7869.chk
%mem=8GB
%nprocshared=4
# opt freq B3LYP/6-31G(d) empiricaldispersion=gd3bj scf=xqc

CID_82496548_JID_7869_neutraal

0 1
C          1.09556       -0.00806       -0.02834
N         -0.28006       -0.41387        0.22888
C         -1.24149        0.56411       -0.31106
C         -1.33219        0.45653       -1.83847
O         -1.42243       -0.63577       -2.40543
N         -1.31192        1.58247       -2.60595
C         -1.04143        2.94499       -2.20103
C          0.43525        3.24004       -2.05860
C          1.39006        2.63564       -2.89755
C          2.70572        2.99665       -2.72115
C          3.11385        3.92027       -1.78529
C          2.21002        4.54464       -0.95728
C          0.85924        4.20047       -1.10198
O          4.48340        4.12496       -1.80043
C          4.90088        3.25604       -2.81778
O          6.06376        3.12269       -3.16721
N          3.83413        2.58185       -3.36503
H          1.31519        0.96134        0.43051
H          1.31567        0.04222       -1.09893
H          1.77697       -0.74088        0.41501
H         -0.45459       -1.30705       -0.24259
H         -2.23758        0.32745        0.07941
H         -0.99209        1.56693        0.03835
H         -1.35565        1.38433       -3.59764
H         -1.45877        3.60140       -2.97224
H         -1.57305        3.14668       -1.26601
H          1.11158        1.90873       -3.65223
H          2.53165        5.27735       -0.22542
H          0.12716        4.68994       -0.46035
H          3.91890        1.90894       -4.10867

--Link1--
%chk=JID_7869.chk
%mem=8GB
%nprocshared=4
# B3LYP/6-311++G(d,p) empiricaldispersion=gd3bj scf=xqc pop=npa geom=check

CID_82496548_JID_7869_Energie_neutraal

0 1

--Link1--
%chk=JID_7869.chk
%mem=8GB
%nprocshared=4
# B3LYP/6-311++G(d,p) empiricaldispersion=gd3bj scf=xqc pop=npa geom=check

CID_82496548_JID_7869_Energie_kation

1 2

--Link1--
%chk=JID_7869.chk
%mem=8GB
%nprocshared=4
# B3LYP/6-311++G(d,p) empiricaldispersion=gd3bj scf=xqc pop=npa geom=check

CID_82496548_JID_7869_Energie_anion

-1 2
