%chk=JID_6496.chk
%mem=8GB
%nprocshared=4
# opt freq B3LYP/6-31G(d) empiricaldispersion=gd3bj scf=xqc

CID_144992632_JID_6496_neutraal

0 1
C          0.96283       -0.03987       -0.08384
C          0.16238        0.86473       -1.02985
C          0.70359        0.66712       -2.46330
C         -1.31188        0.42871       -1.02111
C          0.33308        2.36960       -0.66447
C          0.08404        2.82876        0.76877
C          1.08198        3.40429        1.46786
C         -1.27872        2.76616        1.32194
C         -2.28466        3.35092        0.63336
N         -3.63575        3.33972        0.93357
C         -4.68704        3.48762       -0.07383
C         -5.27015        2.12603       -0.47508
C         -6.06014        1.52377        0.61540
C         -6.70021        1.03994        1.50918
N         -1.54620        2.09572        2.51641
N         -0.57463        1.53773        3.35201
H          0.93506       -1.08336       -0.41855
H          0.56254       -0.01883        0.93297
H          2.01423        0.26533       -0.03926
H          0.60070       -0.37418       -2.78909
H          0.16280        1.29565       -3.17987
H          1.76651        0.92760       -2.52538
H         -1.72750        0.40290       -0.01020
H         -1.92664        1.10136       -1.62928
H         -1.42475       -0.58100       -1.43316
H          1.36264        2.65237       -0.93211
H         -0.28948        2.97004       -1.34162
H          0.91801        3.82315        2.45530
H          2.08272        3.50179        1.05984
H         -2.07431        3.89510       -0.28477
H         -3.88008        2.66604        1.65733
H         -5.47340        4.13056        0.33784
H         -4.29274        3.99159       -0.96431
H         -5.91753        2.25947       -1.34932
H         -4.46651        1.44072       -0.76869
H         -7.26631        0.61305        2.30527
H         -2.40867        2.41481        2.96042
H          0.09085        0.99733        2.79565
H         -0.02455        2.27405        3.79655

--Link1--
%chk=JID_6496.chk
%mem=8GB
%nprocshared=4
# B3LYP/6-311++G(d,p) empiricaldispersion=gd3bj scf=xqc pop=npa geom=check

CID_144992632_JID_6496_Energie_neutraal

0 1

--Link1--
%chk=JID_6496.chk
%mem=8GB
%nprocshared=4
# B3LYP/6-311++G(d,p) empiricaldispersion=gd3bj scf=xqc pop=npa geom=check

CID_144992632_JID_6496_Energie_kation

1 2

--Link1--
%chk=JID_6496.chk
%mem=8GB
%nprocshared=4
# B3LYP/6-311++G(d,p) empiricaldispersion=gd3bj scf=xqc pop=npa geom=check

CID_144992632_JID_6496_Energie_anion

-1 2
