%chk=JID_1431.chk
%mem=8GB
%nprocshared=4
# opt freq B3LYP/6-31G(d) empiricaldispersion=gd3bj scf=xqc

CID_64136569_JID_1431_neutraal

0 1
C          0.93637        0.07655       -0.00954
C         -0.04797       -1.05296       -0.28414
C          0.54709       -2.43080        0.03029
C         -0.44705       -3.54217       -0.32556
C          0.08938       -4.92740        0.07588
C          0.58478       -4.89837        1.52813
C          1.50047       -3.70668        1.77703
O          0.84374       -2.48863        1.42910
C         -1.00434       -5.99566       -0.14316
C         -0.56253       -7.42350        0.15750
O          1.20716       -5.24111       -0.76446
H          1.21662        0.11355        1.04775
H          0.48718        1.03968       -0.27189
H          1.84765       -0.04566       -0.60355
H         -0.94145       -0.88346        0.32908
H         -0.35392       -1.01041       -1.33584
H          1.47737       -2.55313       -0.53973
H         -0.65295       -3.51068       -1.40256
H         -1.39198       -3.36062        0.20339
H         -0.27824       -4.82527        2.20166
H          1.13605       -5.81208        1.77630
H          2.44122       -3.79214        1.22059
H          1.75482       -3.65324        2.84054
H         -1.88457       -5.76206        0.46820
H         -1.32750       -5.96767       -1.19189
H         -0.32534       -7.55456        1.21722
H         -1.36909       -8.12221       -0.08799
H          0.31457       -7.70462       -0.43312
H          0.87971       -5.35168       -1.67416

--Link1--
%chk=JID_1431.chk
%mem=8GB
%nprocshared=4
# B3LYP/6-311++G(d,p) empiricaldispersion=gd3bj scf=xqc pop=npa geom=check

CID_64136569_JID_1431_Energie_neutraal

0 1

--Link1--
%chk=JID_1431.chk
%mem=8GB
%nprocshared=4
# B3LYP/6-311++G(d,p) empiricaldispersion=gd3bj scf=xqc pop=npa geom=check

CID_64136569_JID_1431_Energie_kation

1 2

--Link1--
%chk=JID_1431.chk
%mem=8GB
%nprocshared=4
# B3LYP/6-311++G(d,p) empiricaldispersion=gd3bj scf=xqc pop=npa geom=check

CID_64136569_JID_1431_Energie_anion

-1 2
