%chk=JID_2982.chk
%mem=8GB
%nprocshared=4
# opt freq B3LYP/6-31G(d) empiricaldispersion=gd3bj scf=xqc

CID_130015166_JID_2982_neutraal

0 1
C          0.93527        0.04488        0.06161
C          0.51372        0.10906        1.52570
C          1.34291        1.09247        2.34325
C         -0.98908        0.30234        1.71269
O         -1.64891       -0.56667        2.29364
N         -1.64498        1.40530        1.25620
C         -1.21376        2.53115        0.60961
C         -2.08441        3.48395        0.21925
C         -1.55047        4.75266       -0.40538
N         -3.48105        3.35244        0.35701
C         -4.18476        2.37281       -0.49111
C         -4.30761        4.53563        0.63304
H          0.97453        1.02843       -0.41227
H          0.24494       -0.57756       -0.51771
H          1.93597       -0.39271       -0.02484
H          0.71929       -0.88766        1.94346
H          1.32378        2.10525        1.93428
H          0.97663        1.14610        3.37421
H          2.39034        0.77321        2.37453
H         -2.64106        1.39389        1.46104
H         -0.15162        2.65700        0.45318
H         -2.03610        4.93419       -1.37009
H         -1.73253        5.61231        0.24730
H         -0.47159        4.70141       -0.58864
H         -5.12263        2.06759       -0.01502
H         -4.41370        2.81182       -1.46837
H         -3.59187        1.46790       -0.65827
H         -3.85807        5.14492        1.42447
H         -4.42509        5.14980       -0.26626
H         -5.30222        4.23599        0.98057

--Link1--
%chk=JID_2982.chk
%mem=8GB
%nprocshared=4
# B3LYP/6-311++G(d,p) empiricaldispersion=gd3bj scf=xqc pop=npa geom=check

CID_130015166_JID_2982_Energie_neutraal

0 1

--Link1--
%chk=JID_2982.chk
%mem=8GB
%nprocshared=4
# B3LYP/6-311++G(d,p) empiricaldispersion=gd3bj scf=xqc pop=npa geom=check

CID_130015166_JID_2982_Energie_kation

1 2

--Link1--
%chk=JID_2982.chk
%mem=8GB
%nprocshared=4
# B3LYP/6-311++G(d,p) empiricaldispersion=gd3bj scf=xqc pop=npa geom=check

CID_130015166_JID_2982_Energie_anion

-1 2
