%chk=JID_9483.chk
%mem=8GB
%nprocshared=4
# opt freq B3LYP/6-31G(d) empiricaldispersion=gd3bj scf=xqc

CID_65866717_JID_9483_neutraal

0 1
C          1.08095        0.04939        0.03175
C          0.32390        0.05599       -1.28805
C          0.93760       -0.85480       -2.29509
N          1.89523       -0.41569       -3.11540
N          2.23138       -1.49249       -3.85567
C          1.49659       -2.61108       -3.54296
C          0.65031       -2.21475       -2.52423
C          1.64251       -3.97213       -4.15838
C          0.42541       -4.37373       -5.02562
C          0.35535       -3.64622       -6.39203
N          1.52132       -3.81351       -7.26457
C          0.31475       -5.88867       -5.18331
C         -0.89201       -6.53349       -4.86545
C         -1.01818       -7.91811       -4.99463
C          0.05854       -8.67775       -5.44463
C          1.25951       -8.05260       -5.77092
C          1.38632       -6.66757       -5.64414
C          3.30787       -1.33356       -4.81588
C          2.90996       -0.46778       -6.00012
H          1.10251       -0.95395        0.47065
H          0.60132        0.72394        0.74796
H          2.11683        0.37818       -0.10473
H         -0.71540       -0.24483       -1.10924
H          0.29007        1.07881       -1.68249
H         -0.06856       -2.83319       -2.00476
H          2.57701       -4.07145       -4.71682
H          1.73485       -4.68199       -3.32332
H         -0.47477       -4.05671       -4.47846
H         -0.52654       -4.00195       -6.93900
H          0.20327       -2.57369       -6.22555
H          1.30941       -3.41287       -8.17833
H          2.30928       -3.28549       -6.90118
H         -1.74739       -5.96094       -4.51383
H         -1.95836       -8.40275       -4.74537
H         -0.03958       -9.75497       -5.54665
H          2.09862       -8.64161       -6.13129
H          2.32797       -6.20056       -5.92266
H          4.15160       -0.88276       -4.28064
H          3.63252       -2.31729       -5.15915
H          2.66167        0.55020       -5.68150
H          3.73369       -0.40513       -6.71780
H          2.03518       -0.87461       -6.51595

--Link1--
%chk=JID_9483.chk
%mem=8GB
%nprocshared=4
# B3LYP/6-311++G(d,p) empiricaldispersion=gd3bj scf=xqc pop=npa geom=check

CID_65866717_JID_9483_Energie_neutraal

0 1

--Link1--
%chk=JID_9483.chk
%mem=8GB
%nprocshared=4
# B3LYP/6-311++G(d,p) empiricaldispersion=gd3bj scf=xqc pop=npa geom=check

CID_65866717_JID_9483_Energie_kation

1 2

--Link1--
%chk=JID_9483.chk
%mem=8GB
%nprocshared=4
# B3LYP/6-311++G(d,p) empiricaldispersion=gd3bj scf=xqc pop=npa geom=check

CID_65866717_JID_9483_Energie_anion

-1 2
