%chk=JID_10505.chk
%mem=8GB
%nprocshared=4
# opt freq B3LYP/6-31G(d) empiricaldispersion=gd3bj scf=xqc

CID_80373963_JID_10505_neutraal

0 1
C          1.34400       -0.22500        0.03600
C          0.84333        0.84889       -0.69615
C         -0.52162        1.14312       -0.66463
C         -1.40803        0.36145        0.09709
C         -0.88249       -0.71327        0.83540
C          0.48215       -1.00555        0.80224
C         -2.90189        0.65891        0.18024
C         -3.23253        1.58537        1.33625
C         -2.63515        2.77860        1.70796
C         -3.24405        3.36309        2.85568
C         -4.28998        2.60361        3.32659
S         -4.53476        1.19624        2.39005
N         -3.41934        1.28757       -1.02588
C         -3.68552        0.71832       -2.24392
O         -4.00434        1.47458       -3.16466
C         -3.58936       -0.70843       -2.44506
N         -3.33226       -1.65574       -1.56237
C         -3.36401       -2.79972       -2.30772
N         -3.64066       -2.62924       -3.60155
N         -3.78152       -1.29452       -3.66473
H          2.40607       -0.45390        0.00957
H          1.51661        1.45880       -1.29303
H         -0.88414        1.99023       -1.24187
H         -1.54105       -1.33540        1.43888
H          0.87119       -1.84380        1.37437
H         -3.43997       -0.28396        0.32090
H         -1.79063        3.21233        1.18558
H         -2.92840        4.29238        3.31406
H         -4.92442        2.80618        4.17867
H         -3.50223        2.29367       -1.02523
H         -3.18325       -3.78407       -1.89446
H         -4.00315       -0.84173       -4.54513

--Link1--
%chk=JID_10505.chk
%mem=8GB
%nprocshared=4
# B3LYP/6-311++G(d,p) empiricaldispersion=gd3bj scf=xqc pop=npa geom=check

CID_80373963_JID_10505_Energie_neutraal

0 1

--Link1--
%chk=JID_10505.chk
%mem=8GB
%nprocshared=4
# B3LYP/6-311++G(d,p) empiricaldispersion=gd3bj scf=xqc pop=npa geom=check

CID_80373963_JID_10505_Energie_kation

1 2

--Link1--
%chk=JID_10505.chk
%mem=8GB
%nprocshared=4
# B3LYP/6-311++G(d,p) empiricaldispersion=gd3bj scf=xqc pop=npa geom=check

CID_80373963_JID_10505_Energie_anion

-1 2
