%chk=JID_4579.chk
%mem=8GB
%nprocshared=4
# opt freq B3LYP/6-31G(d) empiricaldispersion=gd3bj scf=xqc

CID_106304990_JID_4579_neutraal

0 1
C         -2.53900       -0.00300       -0.12500
C         -1.10667       -0.47951        0.10195
C         -0.15964        0.71049        0.27962
C          1.29498        0.25634        0.42304
N          1.74839       -0.64948       -0.62246
C          0.83590       -1.75378       -0.90123
C         -0.63104       -1.35412       -1.06193
C          2.44244       -0.06946       -1.77216
C          1.68636        0.90243       -2.68945
C          1.83617        2.36858       -2.29182
O          3.19099        2.77092       -2.48982
C          3.58927        3.87955       -1.67590
C          3.04441        5.21673       -2.17648
O          1.67151        5.38315       -1.82818
H         -2.88394        0.60479        0.71807
H         -2.61972        0.60253       -1.03417
H         -3.21947       -0.85516       -0.22479
H         -1.08855       -1.08031        1.02096
H         -0.26619        1.39111       -0.57111
H         -0.44553        1.28111        1.17167
H          1.39151       -0.26978        1.38209
H          1.95808        1.12469        0.51075
H          0.90514       -2.45720       -0.06077
H          1.15928       -2.32626       -1.77900
H         -1.24481       -2.26197       -1.11344
H         -0.77626       -0.83166       -2.01350
H          3.36164        0.40766       -1.40921
H          2.80439       -0.89885       -2.39476
H          2.09708        0.78443       -3.70098
H          0.62789        0.64201       -2.75623
H          1.20138        2.97360       -2.94655
H          1.52612        2.53495       -1.25827
H          3.30999        3.69396       -0.63246
H          4.68259        3.91080       -1.72678
H          3.59323        6.03598       -1.70253
H          3.14470        5.30800       -3.26287
H          1.14961        5.12857       -2.60826

--Link1--
%chk=JID_4579.chk
%mem=8GB
%nprocshared=4
# B3LYP/6-311++G(d,p) empiricaldispersion=gd3bj scf=xqc pop=npa geom=check

CID_106304990_JID_4579_Energie_neutraal

0 1

--Link1--
%chk=JID_4579.chk
%mem=8GB
%nprocshared=4
# B3LYP/6-311++G(d,p) empiricaldispersion=gd3bj scf=xqc pop=npa geom=check

CID_106304990_JID_4579_Energie_kation

1 2

--Link1--
%chk=JID_4579.chk
%mem=8GB
%nprocshared=4
# B3LYP/6-311++G(d,p) empiricaldispersion=gd3bj scf=xqc pop=npa geom=check

CID_106304990_JID_4579_Energie_anion

-1 2
