%chk=JID_4983.chk
%mem=8GB
%nprocshared=4
# opt freq B3LYP/6-31G(d) empiricaldispersion=gd3bj scf=xqc

CID_115674826_JID_4983_neutraal

0 1
C          1.07221        0.06496       -0.02379
C          1.14130       -1.43744       -0.25636
C          1.63650       -2.21623        0.96463
C          0.68584       -2.22818        2.17087
C         -0.65093       -2.97134        1.95706
C         -0.49061       -4.45520        1.54435
C          0.47522       -5.34101        2.34409
C          0.08162       -5.59488        3.78918
N         -1.43380       -2.83823        3.20059
C         -2.64033       -2.00678        3.04019
C         -3.90358       -2.71738        2.46329
C         -4.31988       -3.93223        3.30013
C         -5.06128       -1.71401        2.40022
O         -3.64583       -3.15925        1.12554
H          0.31823        0.31865        0.72701
H          0.80114        0.57666       -0.95285
H          2.03862        0.45680        0.30865
H          0.16431       -1.80742       -0.58387
H          1.83613       -1.62190       -1.08483
H          1.85769       -3.24351        0.65580
H          2.59471       -1.78957        1.28757
H          1.22215       -2.67704        3.01728
H          0.48130       -1.19289        2.47199
H         -1.17842       -2.47863        1.13215
H         -1.47860       -4.93462        1.53407
H         -0.15748       -4.47480        0.49807
H          0.52708       -6.31275        1.83651
H          1.49035       -4.93238        2.31247
H         -0.94925       -5.95503        3.86214
H          0.73473       -6.35833        4.22482
H          0.18746       -4.69356        4.39894
H         -1.71556       -3.75723        3.52903
H         -2.89082       -1.62957        4.03974
H         -2.39656       -1.12182        2.43803
H         -4.45838       -3.66736        4.35327
H         -5.25974       -4.35677        2.92789
H         -3.58334       -4.73961        3.23219
H         -4.80468       -0.86388        1.75811
H         -5.95498       -2.17277        1.96145
H         -5.32101       -1.33475        3.39398
H         -4.44292       -3.60890        0.79876

--Link1--
%chk=JID_4983.chk
%mem=8GB
%nprocshared=4
# B3LYP/6-311++G(d,p) empiricaldispersion=gd3bj scf=xqc pop=npa geom=check

CID_115674826_JID_4983_Energie_neutraal

0 1

--Link1--
%chk=JID_4983.chk
%mem=8GB
%nprocshared=4
# B3LYP/6-311++G(d,p) empiricaldispersion=gd3bj scf=xqc pop=npa geom=check

CID_115674826_JID_4983_Energie_kation

1 2

--Link1--
%chk=JID_4983.chk
%mem=8GB
%nprocshared=4
# B3LYP/6-311++G(d,p) empiricaldispersion=gd3bj scf=xqc pop=npa geom=check

CID_115674826_JID_4983_Energie_anion

-1 2
