%chk=JID_7547.chk
%mem=8GB
%nprocshared=4
# opt freq B3LYP/6-31G(d) empiricaldispersion=gd3bj scf=xqc

CID_150002998_JID_7547_neutraal

0 1
C          1.07401        0.03984       -0.05418
C          0.25974       -0.38965       -1.28461
C         -0.01248       -1.90221       -1.23786
C         -1.08290        0.35859       -1.28431
N          0.95844       -0.00946       -2.52418
O          2.24348       -0.71267       -2.53458
C          3.24416        0.03733       -3.11904
O          3.09875        1.08948       -3.73387
N          4.49447       -0.53719       -2.95994
N          4.72070       -1.73207       -2.23843
C          5.65060       -1.49785       -1.13290
C          5.90196       -2.71194       -0.20774
C          4.71052       -3.06405        0.70134
C          3.68345       -4.01455        0.09377
C          4.33576       -5.24273       -0.52523
C          5.39840       -4.85845       -1.54611
C          6.46029       -3.94451       -0.93984
H          0.51860       -0.15635        0.87028
H          1.30041        1.11212       -0.08114
H          2.02445       -0.50121        0.01723
H         -0.58704       -2.23146       -2.11138
H          0.91544       -2.48295       -1.21109
H         -0.58920       -2.16839       -0.34451
H         -0.93639        1.44480       -1.31606
H         -1.69817        0.07947       -2.14802
H         -1.66091        0.13059       -0.38121
H          0.49289       -0.41703       -3.33585
H          5.26454       -0.06028       -3.41932
H          3.82555       -2.05325       -1.86309
H          6.61620       -1.18582       -1.55214
H          5.29036       -0.66216       -0.51834
H          6.70186       -2.37027        0.46640
H          5.11203       -3.54664        1.60309
H          4.20984       -2.15201        1.04740
H          3.08317       -3.49866       -0.66021
H          2.98094       -4.33138        0.87386
H          3.57036       -5.86329       -1.00490
H          4.79056       -5.85276        0.26492
H          4.92525       -4.37682       -2.40801
H          5.87932       -5.76683       -1.92759
H          7.17286       -3.63919       -1.71523
H          7.03602       -4.53617       -0.21519

--Link1--
%chk=JID_7547.chk
%mem=8GB
%nprocshared=4
# B3LYP/6-311++G(d,p) empiricaldispersion=gd3bj scf=xqc pop=npa geom=check

CID_150002998_JID_7547_Energie_neutraal

0 1

--Link1--
%chk=JID_7547.chk
%mem=8GB
%nprocshared=4
# B3LYP/6-311++G(d,p) empiricaldispersion=gd3bj scf=xqc pop=npa geom=check

CID_150002998_JID_7547_Energie_kation

1 2

--Link1--
%chk=JID_7547.chk
%mem=8GB
%nprocshared=4
# B3LYP/6-311++G(d,p) empiricaldispersion=gd3bj scf=xqc pop=npa geom=check

CID_150002998_JID_7547_Energie_anion

-1 2
