%chk=JID_7449.chk
%mem=8GB
%nprocshared=4
# opt freq B3LYP/6-31G(d) empiricaldispersion=gd3bj scf=xqc

CID_61271828_JID_7449_neutraal

0 1
C          1.00017        0.09864        0.01645
C          0.73227       -1.34108        0.43234
C          0.83551       -1.69015        1.89822
C          0.96527       -0.86567        2.95479
C          1.02612       -1.77928        4.14938
O          1.27752       -1.39359        5.28218
N          0.86564       -3.08322        3.68830
N          0.76727       -3.05064        2.27223
C         -0.31013       -3.88288        1.72209
C          1.44713       -4.21824        4.41752
C          0.37782       -4.88841        5.30044
C         -0.12568       -6.26329        4.86869
C          0.81789       -7.40172        5.24892
C          2.04949       -7.53655        4.36262
C          2.94674       -6.30348        4.31692
C          2.32154       -5.13845        3.55167
N          1.08186        0.49409        3.11760
H          0.27762        0.78715        0.46530
H          0.91009        0.19359       -1.07108
H          2.01290        0.41073        0.28992
H         -0.27258       -1.60514        0.08053
H          1.43619       -1.97887       -0.11801
H         -0.26200       -4.90523        2.09895
H         -1.29203       -3.46960        1.97773
H         -0.22748       -3.94616        0.63213
H          2.14706       -3.75792        5.13084
H          0.77578       -4.97298        6.32094
H         -0.48964       -4.22078        5.38980
H         -0.36097       -6.29189        3.80163
H         -1.07333       -6.44158        5.39363
H          0.25842       -8.34386        5.18737
H          1.12628       -7.29965        6.29649
H          1.73976       -7.80644        3.34531
H          2.64295       -8.38142        4.73397
H          3.86878       -6.59083        3.79560
H          3.24323       -5.99976        5.32742
H          1.77688       -5.52424        2.68462
H          3.13655       -4.52829        3.13865
H          1.44270        0.70254        4.05147
H          1.63819        0.93335        2.39365

--Link1--
%chk=JID_7449.chk
%mem=8GB
%nprocshared=4
# B3LYP/6-311++G(d,p) empiricaldispersion=gd3bj scf=xqc pop=npa geom=check

CID_61271828_JID_7449_Energie_neutraal

0 1

--Link1--
%chk=JID_7449.chk
%mem=8GB
%nprocshared=4
# B3LYP/6-311++G(d,p) empiricaldispersion=gd3bj scf=xqc pop=npa geom=check

CID_61271828_JID_7449_Energie_kation

1 2

--Link1--
%chk=JID_7449.chk
%mem=8GB
%nprocshared=4
# B3LYP/6-311++G(d,p) empiricaldispersion=gd3bj scf=xqc pop=npa geom=check

CID_61271828_JID_7449_Energie_anion

-1 2
