%chk=JID_9354.chk
%mem=8GB
%nprocshared=4
# opt freq B3LYP/6-31G(d) empiricaldispersion=gd3bj scf=xqc

CID_116193806_JID_9354_neutraal

0 1
C          0.98037       -0.06986       -0.06880
C          0.49813       -1.50239       -0.18064
C          1.37216       -2.57357       -0.45892
C          0.87780       -3.87921       -0.63364
C         -0.48231       -4.15261       -0.48031
C         -1.35338       -3.10478       -0.18120
C         -0.87047       -1.79222       -0.04435
C         -0.97030       -5.49208       -0.67264
C         -1.36001       -6.70854       -0.93414
C         -1.81431       -8.12667       -1.23899
C         -0.74697       -9.13687       -0.82984
O         -0.66012       -9.24869        0.58866
C          2.82371       -2.33618       -0.63321
O          3.21044       -1.51588       -1.46177
N          3.73659       -3.02263        0.13894
C          3.52583       -3.89118        1.26919
C          3.38712       -5.38297        1.04974
C          4.66242       -4.84113        1.61061
C          2.81990       -3.27327        2.45521
H          1.85920       -0.00963        0.58089
H          0.20823        0.56945        0.37217
H          1.22378        0.32278       -1.06054
H          1.55774       -4.67835       -0.91395
H         -2.41954       -3.29330       -0.07324
H         -1.57995       -0.99293        0.16353
H         -2.74841       -8.31559       -0.69884
H         -2.00946       -8.20436       -2.31380
H         -1.00771      -10.12704       -1.21615
H          0.24109       -8.86853       -1.21871
H         -0.44891       -8.36359        0.93543
H          4.69034       -2.73556       -0.05426
H          2.73608       -5.94404        1.71064
H          3.42313       -5.77286        0.03875
H          5.53919       -4.86005        0.97260
H          4.88362       -5.04603        2.65231
H          3.27475       -2.31078        2.71127
H          1.75939       -3.11127        2.24586
H          2.87710       -3.91486        3.34189

--Link1--
%chk=JID_9354.chk
%mem=8GB
%nprocshared=4
# B3LYP/6-311++G(d,p) empiricaldispersion=gd3bj scf=xqc pop=npa geom=check

CID_116193806_JID_9354_Energie_neutraal

0 1

--Link1--
%chk=JID_9354.chk
%mem=8GB
%nprocshared=4
# B3LYP/6-311++G(d,p) empiricaldispersion=gd3bj scf=xqc pop=npa geom=check

CID_116193806_JID_9354_Energie_kation

1 2

--Link1--
%chk=JID_9354.chk
%mem=8GB
%nprocshared=4
# B3LYP/6-311++G(d,p) empiricaldispersion=gd3bj scf=xqc pop=npa geom=check

CID_116193806_JID_9354_Energie_anion

-1 2
