%chk=JID_6462.chk
%mem=8GB
%nprocshared=4
# opt freq B3LYP/6-31G(d) empiricaldispersion=gd3bj scf=xqc

CID_132380116_JID_6462_neutraal

0 1
C          0.91436       -0.02271       -0.04636
C          0.83765        0.68594        1.29740
N          1.29066        2.07318        1.20636
C          0.28482        3.09230        0.88857
C         -0.50477        3.52291        2.11518
C          2.65870        2.32820        1.34817
O          3.49405        1.44201        1.53890
C          3.15414        3.72044        1.26534
N          2.71321        4.56385        2.25130
C          3.17633        5.83172        2.18241
C          4.02894        6.25502        1.17839
N          4.45764        5.42977        0.19761
C          4.01553        4.13519        0.25800
C          4.43861        3.27741       -0.88708
O          4.41893        3.70340       -2.03778
N          4.87608        2.00502       -0.63760
H          0.28361        0.47340       -0.79095
H          0.57698       -1.05912        0.05111
H          1.93940       -0.03125       -0.43117
H         -0.18809        0.66607        1.67986
H          1.46196        0.15022        2.02150
H          0.76077        3.96629        0.43508
H         -0.39301        2.68048        0.13242
H          0.15175        3.91189        2.89886
H         -1.22121        4.30588        1.84807
H         -1.06487        2.68459        2.54117
H          2.84013        6.50648        2.96243
H          4.39050        7.27674        1.13130
H          4.77821        1.54452        0.26733
H          5.11136        1.42561       -1.43226

--Link1--
%chk=JID_6462.chk
%mem=8GB
%nprocshared=4
# B3LYP/6-311++G(d,p) empiricaldispersion=gd3bj scf=xqc pop=npa geom=check

CID_132380116_JID_6462_Energie_neutraal

0 1

--Link1--
%chk=JID_6462.chk
%mem=8GB
%nprocshared=4
# B3LYP/6-311++G(d,p) empiricaldispersion=gd3bj scf=xqc pop=npa geom=check

CID_132380116_JID_6462_Energie_kation

1 2

--Link1--
%chk=JID_6462.chk
%mem=8GB
%nprocshared=4
# B3LYP/6-311++G(d,p) empiricaldispersion=gd3bj scf=xqc pop=npa geom=check

CID_132380116_JID_6462_Energie_anion

-1 2
