%chk=JID_2987.chk
%mem=8GB
%nprocshared=4
# opt freq B3LYP/6-31G(d) empiricaldispersion=gd3bj scf=xqc

CID_131287456_JID_2987_neutraal

0 1
C          1.05816       -0.06333       -0.05106
N          0.53047       -0.76150        1.09769
C          0.46479       -2.12387        1.25913
C         -0.19062       -2.30788        2.45151
N         -0.49159       -1.10369        3.02746
C         -0.00390       -0.17726        2.22945
N          0.04884        1.15949        2.42760
C         -0.77820        1.73728        3.48729
C         -0.74503        1.29343        4.92239
C         -0.12134        2.59905        4.53493
C          0.97335       -3.11365        0.38254
N          1.40594       -3.90011       -0.35183
H          0.34973        0.71517       -0.34639
H          1.19051       -0.75412       -0.88649
H          2.01973        0.37539        0.22688
H         -0.45276       -3.24003        2.93615
H          0.37916        1.78854        1.70560
H         -1.74290        2.06974        3.11085
H         -1.68137        1.30929        5.46766
H         -0.09637        0.46721        5.18746
H          0.96097        2.65060        4.56071
H         -0.62229        3.51007        4.83631

--Link1--
%chk=JID_2987.chk
%mem=8GB
%nprocshared=4
# B3LYP/6-311++G(d,p) empiricaldispersion=gd3bj scf=xqc pop=npa geom=check

CID_131287456_JID_2987_Energie_neutraal

0 1

--Link1--
%chk=JID_2987.chk
%mem=8GB
%nprocshared=4
# B3LYP/6-311++G(d,p) empiricaldispersion=gd3bj scf=xqc pop=npa geom=check

CID_131287456_JID_2987_Energie_kation

1 2

--Link1--
%chk=JID_2987.chk
%mem=8GB
%nprocshared=4
# B3LYP/6-311++G(d,p) empiricaldispersion=gd3bj scf=xqc pop=npa geom=check

CID_131287456_JID_2987_Energie_anion

-1 2
