%chk=JID_6769.chk
%mem=8GB
%nprocshared=4
# opt freq B3LYP/6-31G(d) empiricaldispersion=gd3bj scf=xqc

CID_11287443_JID_6769_neutraal

0 1
C          1.52000        0.00000        0.20800
C          0.57418       -0.55302       -0.84322
C         -0.73338       -0.97602       -0.20104
O         -1.39472        0.13846        0.36875
C         -0.65265        0.89253        1.32295
C          0.85702        1.06126        1.08108
O         -1.05316        0.68984        2.68344
C         -0.82041       -0.41773        3.42582
C          0.02005       -1.43899        3.22857
C          0.12750       -2.61607        4.15633
C         -0.00313       -3.92256        3.42054
C         -1.24098       -4.36899        2.96525
N         -1.42792       -5.52021        2.28047
C         -0.32930       -6.26343        2.03181
C          0.94735       -5.90803        2.43340
C          1.11059       -4.71792        3.13640
H          1.89231       -0.82072        0.82822
H          2.40727        0.42448       -0.27712
H          0.38048        0.22502       -1.59160
H          1.03896       -1.40143       -1.35647
H         -1.39670       -1.38896       -0.96837
H         -0.59223       -1.76111        0.54531
H         -1.04521        1.90398        1.15674
H          1.40167        1.17976        2.02463
H          0.98960        2.01308        0.54665
H         -1.44903       -0.36555        4.31054
H          0.67549       -1.46399        2.37391
H          1.09943       -2.57282        4.66339
H         -0.63050       -2.57553        4.94875
H         -2.14628       -3.79183        3.13796
H         -0.50761       -7.18248        1.48110
H          1.79530       -6.54306        2.20326
H          2.10440       -4.41690        3.45761

--Link1--
%chk=JID_6769.chk
%mem=8GB
%nprocshared=4
# B3LYP/6-311++G(d,p) empiricaldispersion=gd3bj scf=xqc pop=npa geom=check

CID_11287443_JID_6769_Energie_neutraal

0 1

--Link1--
%chk=JID_6769.chk
%mem=8GB
%nprocshared=4
# B3LYP/6-311++G(d,p) empiricaldispersion=gd3bj scf=xqc pop=npa geom=check

CID_11287443_JID_6769_Energie_kation

1 2

--Link1--
%chk=JID_6769.chk
%mem=8GB
%nprocshared=4
# B3LYP/6-311++G(d,p) empiricaldispersion=gd3bj scf=xqc pop=npa geom=check

CID_11287443_JID_6769_Energie_anion

-1 2
