%chk=JID_2892.chk
%mem=8GB
%nprocshared=4
# opt freq B3LYP/6-31G(d) empiricaldispersion=gd3bj scf=xqc

CID_101834357_JID_2892_neutraal

0 1
C          0.92456       -0.03373        0.05631
C          0.70678        1.18982        0.90205
O          0.26389        2.23189        0.42010
C          1.00587        1.08208        2.37076
C          0.05253        0.19954        3.13203
O          0.48403       -0.57851        3.98486
C         -1.42900        0.31520        2.84250
C         -2.24740        0.42318        4.13136
O         -2.66353        1.77284        4.35887
C         -1.68019        2.56642        5.00487
O         -3.38760       -0.44648        4.07310
C         -4.40126       -0.02075        3.17261
H          0.77863        0.21891       -0.99772
H          0.21125       -0.81200        0.33672
H          1.94748       -0.39534        0.18762
H          2.02547        0.69724        2.48373
H          0.98332        2.08132        2.81670
H         -1.61261        1.18958        2.21051
H         -1.69408       -0.57991        2.26784
H         -1.68079        0.07582        5.00232
H         -1.41169        2.13909        5.97521
H         -0.79189        2.67097        4.37762
H         -2.09994        3.56281        5.16835
H         -4.84607        0.92229        3.50271
H         -4.01577        0.07884        2.15421
H         -5.18730       -0.78121        3.16626

--Link1--
%chk=JID_2892.chk
%mem=8GB
%nprocshared=4
# B3LYP/6-311++G(d,p) empiricaldispersion=gd3bj scf=xqc pop=npa geom=check

CID_101834357_JID_2892_Energie_neutraal

0 1

--Link1--
%chk=JID_2892.chk
%mem=8GB
%nprocshared=4
# B3LYP/6-311++G(d,p) empiricaldispersion=gd3bj scf=xqc pop=npa geom=check

CID_101834357_JID_2892_Energie_kation

1 2

--Link1--
%chk=JID_2892.chk
%mem=8GB
%nprocshared=4
# B3LYP/6-311++G(d,p) empiricaldispersion=gd3bj scf=xqc pop=npa geom=check

CID_101834357_JID_2892_Energie_anion

-1 2
