%chk=JID_10572.chk
%mem=8GB
%nprocshared=4
# opt freq B3LYP/6-31G(d) empiricaldispersion=gd3bj scf=xqc

CID_103500683_JID_10572_neutraal

0 1
C          0.95451       -0.01930        0.08694
C          0.92367        0.06540        1.60104
O          1.97135        0.86177        2.12194
C          3.31796        0.35308        2.28054
C          3.59319       -1.13730        2.25552
N          2.94207       -2.03397        1.50007
O          3.58801       -3.23339        1.76453
C          4.61540       -2.94122        2.61055
N          4.64262       -1.67967        2.97248
C          5.56353       -4.04333        2.94922
C          4.97337       -4.87852        4.09205
C          5.91175       -4.90737        1.71533
C          6.43548       -4.09908        0.52147
C          6.93609       -5.95385        2.08263
O          6.72836       -7.15151        2.17386
O          8.15389       -5.44882        2.35041
C          4.32593        1.21348        1.42644
C          3.89920        2.69940        1.43712
C          5.74810        1.13381        2.02501
C          4.40432        0.76038       -0.04253
H          0.04576       -0.50191       -0.28561
H          1.80819       -0.59044       -0.28072
H          1.02063        0.98160       -0.35202
H         -0.00409        0.58192        1.87488
H          0.86061       -0.90914        2.09165
H          3.52591        0.62958        3.32512
H          6.48435       -3.57750        3.32597
H          4.06394       -5.40216        3.77640
H          5.68837       -5.62499        4.45230
H          4.70937       -4.24248        4.94510
H          5.01814       -5.44999        1.37721
H          7.25795       -3.43727        0.81373
H          6.80897       -4.76464       -0.26502
H          5.64785       -3.48204        0.07779
H          8.70238       -6.23479        2.56018
H          3.80205        3.07416        2.46203
H          4.63488        3.32731        0.92137
H          2.93965        2.84827        0.92914
H          6.17491        0.13037        1.93547
H          6.43200        1.81775        1.50873
H          5.74679        1.41189        3.08491
H          4.68403       -0.29419       -0.13206
H          3.45680        0.91175       -0.56349
H          5.15961        1.33829       -0.58863

--Link1--
%chk=JID_10572.chk
%mem=8GB
%nprocshared=4
# B3LYP/6-311++G(d,p) empiricaldispersion=gd3bj scf=xqc pop=npa geom=check

CID_103500683_JID_10572_Energie_neutraal

0 1

--Link1--
%chk=JID_10572.chk
%mem=8GB
%nprocshared=4
# B3LYP/6-311++G(d,p) empiricaldispersion=gd3bj scf=xqc pop=npa geom=check

CID_103500683_JID_10572_Energie_kation

1 2

--Link1--
%chk=JID_10572.chk
%mem=8GB
%nprocshared=4
# B3LYP/6-311++G(d,p) empiricaldispersion=gd3bj scf=xqc pop=npa geom=check

CID_103500683_JID_10572_Energie_anion

-1 2
