%chk=JID_3914.chk
%mem=8GB
%nprocshared=4
# opt freq B3LYP/6-31G(d) empiricaldispersion=gd3bj scf=xqc

CID_22951990_JID_3914_neutraal

0 1
C          0.96622       -0.07171        0.06096
C          0.58734        0.75017        1.26213
C          0.23420        0.14260        2.40526
C         -0.13607        0.91649        3.61213
O         -0.40695        0.29358        4.63656
N         -0.11775        2.29940        3.47995
C          0.27001        2.92424        2.30028
C          0.60744        2.21630        1.19768
C          0.98373        2.83190       -0.12738
O          0.27876        4.30103        2.35635
C         -0.49688        3.08143        4.64604
N         -1.81484        3.66293        4.40018
C         -2.20709        4.53124        5.49744
H          0.27093        0.10310       -0.76649
H          0.94404       -1.14589        0.27747
H          1.98205        0.16685       -0.27090
H          0.20191       -0.93436        2.51769
H          0.86077        3.91684       -0.16047
H          2.03107        2.61740       -0.36530
H          0.35252        2.43878       -0.93179
H          0.77194        4.64890        1.59951
H         -0.52844        2.45303        5.54274
H          0.26604        3.85147        4.81755
H         -1.72679        4.21002        3.54421
H         -1.50006        5.35636        5.63264
H         -3.19010        4.96361        5.28661
H         -2.28811        3.97246        6.43547

--Link1--
%chk=JID_3914.chk
%mem=8GB
%nprocshared=4
# B3LYP/6-311++G(d,p) empiricaldispersion=gd3bj scf=xqc pop=npa geom=check

CID_22951990_JID_3914_Energie_neutraal

0 1

--Link1--
%chk=JID_3914.chk
%mem=8GB
%nprocshared=4
# B3LYP/6-311++G(d,p) empiricaldispersion=gd3bj scf=xqc pop=npa geom=check

CID_22951990_JID_3914_Energie_kation

1 2

--Link1--
%chk=JID_3914.chk
%mem=8GB
%nprocshared=4
# B3LYP/6-311++G(d,p) empiricaldispersion=gd3bj scf=xqc pop=npa geom=check

CID_22951990_JID_3914_Energie_anion

-1 2
