%chk=JID_9522.chk
%mem=8GB
%nprocshared=4
# opt freq B3LYP/6-31G(d) empiricaldispersion=gd3bj scf=xqc

CID_128779880_JID_9522_neutraal

0 1
C          0.98692       -0.05936        0.07940
C          0.14106        1.18534       -0.26730
C         -0.88215        1.44788        0.86425
C         -0.23895        2.08834        2.10212
C          0.66432        3.26277        1.74326
C          1.71116        2.86472        0.71115
N          1.07657        2.32898       -0.52902
S          0.71220        3.51432       -1.68731
O         -0.49926        4.18675       -1.26605
O          1.91326        4.29976       -1.88959
C          0.34062        2.66145       -3.22559
C          1.55874        2.18458       -4.03275
C          2.11373        0.83442       -3.56134
C          1.18361       -0.33942       -3.87084
C          0.80640       -0.39023       -5.34928
C          0.25660        0.94273       -5.84705
C          1.21123        2.09234       -5.53217
C         -2.13007        2.22494        0.42721
O         -2.65560        1.68537       -0.77924
H          0.34913       -0.94862        0.13240
H          1.50104        0.03430        1.04035
H          1.74992       -0.24696       -0.68052
H         -0.38189        0.92710       -1.18944
H         -1.26816        0.46454        1.17159
H          0.35684        1.33386        2.63063
H         -1.00973        2.41620        2.80982
H          1.16608        3.62177        2.64921
H          0.06023        4.09687        1.37023
H          2.38677        2.10605        1.12165
H          2.35186        3.72330        0.48499
H         -0.40170        1.88545       -3.03886
H         -0.18065        3.43296       -3.80899
H          2.35990        2.92718       -3.93894
H          3.07242        0.65526       -4.06620
H          2.34130        0.86797       -2.49416
H          0.27336       -0.27114       -3.26542
H          1.67405       -1.27810       -3.58862
H          0.06501       -1.18004       -5.51536
H          1.69208       -0.65754       -5.93893
H         -0.72172        1.13264       -5.39012
H          0.09295        0.88967       -6.92958
H          0.77908        3.03734       -5.88229
H          2.13816        1.94879       -6.10294
H         -2.90791        2.13520        1.19417
H         -1.94028        3.28983        0.29839
H         -3.32128        2.32335       -1.09453

--Link1--
%chk=JID_9522.chk
%mem=8GB
%nprocshared=4
# B3LYP/6-311++G(d,p) empiricaldispersion=gd3bj scf=xqc pop=npa geom=check

CID_128779880_JID_9522_Energie_neutraal

0 1

--Link1--
%chk=JID_9522.chk
%mem=8GB
%nprocshared=4
# B3LYP/6-311++G(d,p) empiricaldispersion=gd3bj scf=xqc pop=npa geom=check

CID_128779880_JID_9522_Energie_kation

1 2

--Link1--
%chk=JID_9522.chk
%mem=8GB
%nprocshared=4
# B3LYP/6-311++G(d,p) empiricaldispersion=gd3bj scf=xqc pop=npa geom=check

CID_128779880_JID_9522_Energie_anion

-1 2
