%chk=JID_9406.chk
%mem=8GB
%nprocshared=4
# opt freq B3LYP/6-31G(d) empiricaldispersion=gd3bj scf=xqc

CID_43523517_JID_9406_neutraal

0 1
C         -2.53900       -0.00300       -0.12500
C         -1.03991       -0.05890        0.16667
C         -0.32643        1.13303       -0.49177
C          1.19296        0.98745       -0.47438
N          1.60739       -0.31118       -1.07230
C          1.04942       -1.43312       -0.28513
C         -0.47289       -1.41418       -0.28164
S          1.54671       -0.35457       -2.75627
O          0.18138       -0.51109       -3.19091
O          2.36346        0.72926       -3.25060
N          2.40044       -1.74075       -3.11828
C          1.65837       -3.02191       -3.33316
C          1.10307       -3.06526       -4.75867
C          2.65428       -4.19927       -3.08449
C          1.96471       -5.57181       -3.05486
C          2.98224       -6.68998       -2.82256
C          3.85564       -6.40314       -1.60388
C          4.43943       -4.99256       -1.64772
N          3.37528       -4.00661       -1.80878
H         -2.96859        0.93850        0.23327
H         -2.74120       -0.07985       -1.19885
H         -3.06324       -0.82262        0.37774
H         -0.89587        0.02291        1.25244
H         -0.67430        1.25429       -1.52388
H         -0.60454        2.05693        0.03049
H          1.56438        1.03310        0.55725
H          1.66673        1.82372       -0.99924
H          1.41805       -1.34415        0.74556
H          1.42961       -2.39198       -0.63595
H         -0.83895       -2.19997        0.39108
H         -0.85351       -1.67290       -1.27506
H          3.07326       -1.52671       -3.85409
H          0.83157       -3.09917       -2.61975
H          1.91038       -3.04985       -5.49866
H          0.50500       -3.96618       -4.92364
H          0.45483       -2.21138       -4.97279
H          3.39172       -4.18411       -3.89994
H          1.44160       -5.76838       -3.99615
H          1.20935       -5.59526       -2.25831
H          2.46434       -7.64704       -2.69509
H          3.61953       -6.78624       -3.71034
H          3.25525       -6.52170       -0.69302
H          4.66615       -7.13875       -1.54960
H          4.97406       -4.79453       -0.71262
H          5.17110       -4.90440       -2.46017
H          3.75405       -3.05524       -1.80278

--Link1--
%chk=JID_9406.chk
%mem=8GB
%nprocshared=4
# B3LYP/6-311++G(d,p) empiricaldispersion=gd3bj scf=xqc pop=npa geom=check

CID_43523517_JID_9406_Energie_neutraal

0 1

--Link1--
%chk=JID_9406.chk
%mem=8GB
%nprocshared=4
# B3LYP/6-311++G(d,p) empiricaldispersion=gd3bj scf=xqc pop=npa geom=check

CID_43523517_JID_9406_Energie_kation

1 2

--Link1--
%chk=JID_9406.chk
%mem=8GB
%nprocshared=4
# B3LYP/6-311++G(d,p) empiricaldispersion=gd3bj scf=xqc pop=npa geom=check

CID_43523517_JID_9406_Energie_anion

-1 2
