%chk=JID_6915.chk
%mem=8GB
%nprocshared=4
# opt freq B3LYP/6-31G(d) empiricaldispersion=gd3bj scf=xqc

CID_116851434_JID_6915_neutraal

0 1
C          0.97009        0.09542        0.00077
C          0.44524       -1.01044       -0.90831
C          0.93892       -2.39799       -0.57029
C          1.31458       -3.27204       -1.60030
C          1.73669       -4.57542       -1.31941
C          1.78193       -5.03888       -0.00075
C          1.39706       -4.17226        1.02900
C          0.97237       -2.87051        0.74690
C          2.22854       -6.44593        0.31074
C          1.09955       -7.35740        0.81246
C          0.01347       -7.66453       -0.22763
C          0.54742       -8.61067       -1.31805
O          0.44921       -9.83222       -1.27691
O          1.13952       -7.91052       -2.32475
C          1.66741       -8.73050       -3.36816
N         -1.12283       -8.32732        0.46929
H          0.59096       -0.00525        1.02244
H          0.64831        1.07262       -0.37391
H          2.06446        0.08893        0.04039
H         -0.65095       -1.01684       -0.88384
H          0.73759       -0.76181       -1.93628
H          1.27958       -2.94458       -2.63726
H          2.02371       -5.22521       -2.14303
H          1.41903       -4.50638        2.06420
H          0.66286       -2.23588        1.57325
H          2.72761       -6.89115       -0.55716
H          3.00289       -6.38663        1.08720
H          1.55396       -8.29813        1.15214
H          0.63967       -6.89965        1.69843
H         -0.38072       -6.75721       -0.69554
H          2.43864       -9.40104       -2.97596
H          0.86678       -9.29959       -3.85092
H          2.12594       -8.07583       -4.11433
H         -1.84753       -8.53054       -0.22103
H         -0.80295       -9.25073        0.77599

--Link1--
%chk=JID_6915.chk
%mem=8GB
%nprocshared=4
# B3LYP/6-311++G(d,p) empiricaldispersion=gd3bj scf=xqc pop=npa geom=check

CID_116851434_JID_6915_Energie_neutraal

0 1

--Link1--
%chk=JID_6915.chk
%mem=8GB
%nprocshared=4
# B3LYP/6-311++G(d,p) empiricaldispersion=gd3bj scf=xqc pop=npa geom=check

CID_116851434_JID_6915_Energie_kation

1 2

--Link1--
%chk=JID_6915.chk
%mem=8GB
%nprocshared=4
# B3LYP/6-311++G(d,p) empiricaldispersion=gd3bj scf=xqc pop=npa geom=check

CID_116851434_JID_6915_Energie_anion

-1 2
