%chk=JID_4128.chk
%mem=8GB
%nprocshared=4
# opt freq B3LYP/6-31G(d) empiricaldispersion=gd3bj scf=xqc

CID_104692954_JID_4128_neutraal

0 1
C          0.96232        0.09070       -0.01878
C         -0.02298        0.01722        1.13826
C          0.56173        0.42603        2.51892
C          0.92803        1.93167        2.47030
C          0.71529        2.66122        3.79415
C          1.69621        2.29359        4.89391
C          1.75861        0.80396        5.20739
C          2.46514       -0.00669        4.11867
N          1.69055       -0.41921        2.94590
C          1.47901       -1.86924        2.88664
C          0.36219       -2.38265        3.75180
C         -0.62468       -3.17236        3.29280
C         -1.74966       -3.69860        4.12512
S         -3.31800       -3.07522        3.46887
H          1.32538        1.11133       -0.17213
H          0.47242       -0.22736       -0.94497
H          1.82731       -0.55954        0.13898
H         -0.87674        0.66821        0.90789
H         -0.44512       -0.99231        1.18311
H         -0.26215        0.30451        3.23503
H          0.29046        2.43891        1.73423
H          1.95799        2.07337        2.11807
H          0.79899        3.74019        3.61180
H         -0.31005        2.49132        4.14504
H          2.69661        2.65932        4.63042
H          1.40612        2.83178        5.80483
H          2.33639        0.68967        6.13395
H          0.76174        0.40324        5.42332
H          3.33083        0.56252        3.75605
H          2.91041       -0.88254        4.60947
H          1.33025       -2.17810        1.84558
H          2.40118       -2.39137        3.17527
H          0.38302       -2.09284        4.79869
H         -0.62224       -3.47212        2.24544
H         -1.75699       -4.79219        4.08908
H         -1.65958       -3.39357        5.17207
H         -3.02007       -1.77374        3.59189

--Link1--
%chk=JID_4128.chk
%mem=8GB
%nprocshared=4
# B3LYP/6-311++G(d,p) empiricaldispersion=gd3bj scf=xqc pop=npa geom=check

CID_104692954_JID_4128_Energie_neutraal

0 1

--Link1--
%chk=JID_4128.chk
%mem=8GB
%nprocshared=4
# B3LYP/6-311++G(d,p) empiricaldispersion=gd3bj scf=xqc pop=npa geom=check

CID_104692954_JID_4128_Energie_kation

1 2

--Link1--
%chk=JID_4128.chk
%mem=8GB
%nprocshared=4
# B3LYP/6-311++G(d,p) empiricaldispersion=gd3bj scf=xqc pop=npa geom=check

CID_104692954_JID_4128_Energie_anion

-1 2
