%chk=JID_5719.chk
%mem=8GB
%nprocshared=4
# opt freq B3LYP/6-31G(d) empiricaldispersion=gd3bj scf=xqc

CID_65909953_JID_5719_neutraal

0 1
C          1.05606        0.06358       -0.05306
C          0.80260        1.20254       -1.04372
C          1.19357        0.79545       -2.47335
C          0.54938       -0.53080       -2.85689
C         -0.97062       -0.53080       -2.85689
N         -2.23159       -0.53080       -2.85689
N          0.91665        1.87540       -3.43402
C          1.78609        1.84974       -4.61909
C          1.04323        1.90595       -5.98376
C          2.04439        2.21100       -7.11685
C          2.82974        1.00882       -7.64202
C          2.12228        0.29614       -8.79340
C          0.86149       -0.47026       -8.40937
C         -0.19614        0.34566       -7.66373
C          0.20280        0.63706       -6.21741
H          0.31928       -0.73900       -0.14849
H          0.97177        0.44727        0.96958
H          2.06120       -0.35408       -0.16865
H         -0.24970        1.50562       -0.98749
H          1.39808        2.07337       -0.74170
H          2.28072        0.63708       -2.44528
H          0.88945       -0.84319       -3.84746
H          0.88923       -1.33954       -2.19976
H         -0.06925        1.93233       -3.68352
H          2.43871        2.72696       -4.53593
H          2.45098        0.97752       -4.61621
H          0.35441        2.76155       -5.94671
H          1.51109        2.69108       -7.94755
H          2.75838        2.96614       -6.76402
H          3.07512        0.30402       -6.84018
H          3.78709        1.37882       -8.03102
H          2.82638       -0.41408       -9.24547
H          1.87836        1.02191       -9.57908
H          1.13980       -1.34850       -7.81269
H          0.41155       -0.86333       -9.32980
H         -1.10980       -0.26250       -7.63861
H         -0.44883        1.26293       -8.20586
H          0.73477       -0.23850       -5.83362
H         -0.71441        0.72590       -5.62259

--Link1--
%chk=JID_5719.chk
%mem=8GB
%nprocshared=4
# B3LYP/6-311++G(d,p) empiricaldispersion=gd3bj scf=xqc pop=npa geom=check

CID_65909953_JID_5719_Energie_neutraal

0 1

--Link1--
%chk=JID_5719.chk
%mem=8GB
%nprocshared=4
# B3LYP/6-311++G(d,p) empiricaldispersion=gd3bj scf=xqc pop=npa geom=check

CID_65909953_JID_5719_Energie_kation

1 2

--Link1--
%chk=JID_5719.chk
%mem=8GB
%nprocshared=4
# B3LYP/6-311++G(d,p) empiricaldispersion=gd3bj scf=xqc pop=npa geom=check

CID_65909953_JID_5719_Energie_anion

-1 2
