%chk=JID_10656.chk
%mem=8GB
%nprocshared=4
# opt freq B3LYP/6-31G(d) empiricaldispersion=gd3bj scf=xqc

CID_104919443_JID_10656_neutraal

0 1
C          0.98875       -0.03012        0.09469
C          1.04619        1.42475        0.54488
C          1.41932        2.40534       -0.54379
C          1.80725        3.70687       -0.24231
N          2.09274        4.55413       -1.25017
N          1.97189        4.12653       -2.53790
C          1.56807        2.87090       -2.79214
N          1.29675        1.98139       -1.82643
N          1.42001        2.38887       -4.08104
C          1.52852        3.01862       -5.27760
O          1.52760        2.37214       -6.32547
C          1.69830        4.49780       -5.34599
C          0.68757        5.34974       -5.05702
C          0.80173        6.84591       -5.15035
C         -0.64710        4.83664       -4.65378
O         -1.12983        3.74629       -4.89465
O         -1.33337        5.74104       -3.93405
C          3.07786        4.89540       -5.78269
C          1.92654        4.21410        1.17065
C          2.29402        5.68855        1.29132
H          0.22720       -0.18163       -0.67765
H          0.73851       -0.67668        0.94199
H          1.95331       -0.35698       -0.30832
H          0.06796        1.71216        0.94796
H          1.77610        1.48830        1.35951
H          1.19818        1.40709       -4.12988
H         -0.08977        7.27510       -5.62150
H          0.91269        7.28225       -4.15226
H          1.64948        7.17062       -5.75980
H         -2.16956        5.27644       -3.72338
H          3.82502        4.18348       -5.41389
H          3.13844        4.91678       -6.87545
H          3.37201        5.87469       -5.39455
H          0.97092        4.05611        1.68429
H          2.69085        3.62659        1.69235
H          1.54769        6.32570        0.80496
H          2.34961        5.97766        2.34573
H          3.26814        5.89370        0.83442

--Link1--
%chk=JID_10656.chk
%mem=8GB
%nprocshared=4
# B3LYP/6-311++G(d,p) empiricaldispersion=gd3bj scf=xqc pop=npa geom=check

CID_104919443_JID_10656_Energie_neutraal

0 1

--Link1--
%chk=JID_10656.chk
%mem=8GB
%nprocshared=4
# B3LYP/6-311++G(d,p) empiricaldispersion=gd3bj scf=xqc pop=npa geom=check

CID_104919443_JID_10656_Energie_kation

1 2

--Link1--
%chk=JID_10656.chk
%mem=8GB
%nprocshared=4
# B3LYP/6-311++G(d,p) empiricaldispersion=gd3bj scf=xqc pop=npa geom=check

CID_104919443_JID_10656_Energie_anion

-1 2
