%chk=JID_9484.chk
%mem=8GB
%nprocshared=4
# opt freq B3LYP/6-31G(d) empiricaldispersion=gd3bj scf=xqc

CID_108047058_JID_9484_neutraal

0 1
C          0.95742       -0.06491       -0.06303
C          0.44174       -0.30618        1.32051
C          0.34425       -1.57222        1.90965
C         -0.14277       -1.80977        3.18968
C         -0.56524       -0.71718        3.96564
C         -0.47952        0.56817        3.41727
C          0.01203        0.76657        2.12377
C         -0.07787       -3.21538        3.37795
C          0.44880       -3.75160        2.21728
O          0.70696       -2.74873        1.32380
C          0.77593       -5.14706        1.76360
C          1.95643       -5.69884        2.52225
C          2.07109       -6.06654        3.85036
N          3.30083       -6.55611        4.24117
C          4.12530       -6.54593        3.21668
S          3.46709       -5.96040        1.74196
C          5.54262       -6.99532        3.27432
N         -0.41936       -6.00105        1.89362
C         -0.29060       -7.25897        1.17332
H          0.18888        0.42174       -0.67198
H          1.23727       -1.00029       -0.55740
H          1.84332        0.57709       -0.02779
H         -0.95096       -0.86232        4.96992
H         -0.80231        1.42400        4.00625
H          0.06050        1.78122        1.73086
H         -0.38069       -3.76928        4.25418
H          1.02335       -5.08087        0.69455
H          1.27928       -6.00362        4.58658
H          6.22158       -6.14693        3.14323
H          5.75841       -7.45430        4.24458
H          5.75234       -7.73825        2.49824
H         -0.60886       -6.17776        2.87593
H          0.50277       -7.89178        1.58270
H         -1.22948       -7.81611        1.25214
H         -0.10166       -7.09080        0.10810

--Link1--
%chk=JID_9484.chk
%mem=8GB
%nprocshared=4
# B3LYP/6-311++G(d,p) empiricaldispersion=gd3bj scf=xqc pop=npa geom=check

CID_108047058_JID_9484_Energie_neutraal

0 1

--Link1--
%chk=JID_9484.chk
%mem=8GB
%nprocshared=4
# B3LYP/6-311++G(d,p) empiricaldispersion=gd3bj scf=xqc pop=npa geom=check

CID_108047058_JID_9484_Energie_kation

1 2

--Link1--
%chk=JID_9484.chk
%mem=8GB
%nprocshared=4
# B3LYP/6-311++G(d,p) empiricaldispersion=gd3bj scf=xqc pop=npa geom=check

CID_108047058_JID_9484_Energie_anion

-1 2
