%chk=JID_9199.chk
%mem=8GB
%nprocshared=4
# opt freq B3LYP/6-31G(d) empiricaldispersion=gd3bj scf=xqc

CID_103729551_JID_9199_neutraal

0 1
C          1.05592        0.05236       -0.06428
C          0.27291        1.35226       -0.18724
C          1.10224        2.55591       -0.70067
C          1.88244        2.19835       -1.97943
N          0.36029        3.83135       -0.73332
C          1.03686        4.95607       -1.35525
C         -1.09824        3.85613       -0.88130
C         -1.72101        3.83186       -2.29901
N         -1.36602        2.62901       -3.04711
C         -2.22395        2.35597       -4.20249
C         -1.97412        3.35547       -5.33591
C         -1.93832        0.92346       -4.70594
C         -2.17271       -0.18856       -3.67239
C         -3.62364       -0.38652       -3.30935
C         -4.16060        0.22496       -2.16864
C         -5.50489        0.04877       -1.83768
C         -6.32368       -0.74210       -2.64167
C         -5.79975       -1.35488       -3.77861
C         -4.45662       -1.17582       -4.11321
H          1.34348       -0.33927       -1.04454
H          0.43940       -0.71019        0.42305
H          1.95923        0.19160        0.53768
H         -0.57763        1.15693       -0.84757
H         -0.13368        1.59559        0.80269
H          1.87773        2.71812        0.06221
H          1.24379        1.76876       -2.75254
H          2.41584        3.05325       -2.40412
H          2.65721        1.45630       -1.75409
H          1.03031        4.89046       -2.44806
H          0.56068        5.90180       -1.07243
H          2.07616        5.02581       -1.01507
H         -1.56847        3.07542       -0.27331
H         -1.44944        4.78360       -0.40680
H         -2.80934        3.88789       -2.17298
H         -1.41462        4.72769       -2.85063
H         -0.39786        2.71915       -3.34630
H         -3.27873        2.41821       -3.91108
H         -0.92394        3.35290       -5.64903
H         -2.58438        3.10561       -6.21064
H         -2.23674        4.37508       -5.03633
H         -2.55244        0.72613       -5.59432
H         -0.89216        0.86105       -5.03600
H         -1.79122       -1.13295       -4.08317
H         -1.58050       -0.01629       -2.76622
H         -3.53027        0.84702       -1.53597
H         -5.91210        0.52859       -0.95182
H         -7.36953       -0.88158       -2.38203
H         -6.43671       -1.97383       -4.40465
H         -4.06055       -1.66053       -5.00245

--Link1--
%chk=JID_9199.chk
%mem=8GB
%nprocshared=4
# B3LYP/6-311++G(d,p) empiricaldispersion=gd3bj scf=xqc pop=npa geom=check

CID_103729551_JID_9199_Energie_neutraal

0 1

--Link1--
%chk=JID_9199.chk
%mem=8GB
%nprocshared=4
# B3LYP/6-311++G(d,p) empiricaldispersion=gd3bj scf=xqc pop=npa geom=check

CID_103729551_JID_9199_Energie_kation

1 2

--Link1--
%chk=JID_9199.chk
%mem=8GB
%nprocshared=4
# B3LYP/6-311++G(d,p) empiricaldispersion=gd3bj scf=xqc pop=npa geom=check

CID_103729551_JID_9199_Energie_anion

-1 2
