%chk=JID_7824.chk
%mem=8GB
%nprocshared=4
# opt freq B3LYP/6-31G(d) empiricaldispersion=gd3bj scf=xqc

CID_141955824_JID_7824_neutraal

0 1
C          1.01883       -0.05624       -0.08051
C          1.14035        0.52907       -1.48005
C          1.49000       -0.51993       -2.51460
C          0.61336       -1.12282       -3.34242
C         -0.82203       -0.93692       -3.35548
C         -1.68699       -1.43850       -4.25529
C         -1.31593       -2.18866       -5.50735
O         -3.04201       -1.12756       -4.09380
C         -3.96381       -2.12723       -4.29046
C         -5.07660       -1.82967       -5.07009
C         -6.06511       -2.79869       -5.27783
C         -5.95156       -4.08019       -4.72463
C         -4.85321       -4.33289       -3.88744
C         -3.86117       -3.37041       -3.67307
N         -6.93886       -5.06409       -4.84054
C         -7.90395       -4.98763       -5.92214
C          2.96023       -0.84781       -2.60533
H          0.23897       -0.82391       -0.03898
H          0.75636        0.73020        0.63447
H          1.96021       -0.50724        0.24930
H          0.21013        1.04752       -1.73535
H          1.91102        1.31004       -1.48191
H          1.00465       -1.84444       -4.05706
H         -1.24932       -0.36119       -2.53739
H         -1.41148       -3.26799       -5.35571
H         -1.96637       -1.89419       -6.33828
H         -0.29321       -1.97930       -5.83349
H         -5.18167       -0.84382       -5.51377
H         -6.92655       -2.52318       -5.87785
H         -4.76516       -5.29150       -3.38200
H         -3.02781       -3.59377       -3.01384
H         -6.55688       -5.99854       -4.71717
H         -7.40798       -4.94476       -6.89747
H         -8.53254       -5.88381       -5.90590
H         -8.56776       -4.12505       -5.80617
H          3.53591        0.05269       -2.84325
H          3.32224       -1.25224       -1.65495
H          3.17439       -1.59022       -3.38154

--Link1--
%chk=JID_7824.chk
%mem=8GB
%nprocshared=4
# B3LYP/6-311++G(d,p) empiricaldispersion=gd3bj scf=xqc pop=npa geom=check

CID_141955824_JID_7824_Energie_neutraal

0 1

--Link1--
%chk=JID_7824.chk
%mem=8GB
%nprocshared=4
# B3LYP/6-311++G(d,p) empiricaldispersion=gd3bj scf=xqc pop=npa geom=check

CID_141955824_JID_7824_Energie_kation

1 2

--Link1--
%chk=JID_7824.chk
%mem=8GB
%nprocshared=4
# B3LYP/6-311++G(d,p) empiricaldispersion=gd3bj scf=xqc pop=npa geom=check

CID_141955824_JID_7824_Energie_anion

-1 2
