%chk=JID_6920.chk
%mem=8GB
%nprocshared=4
# opt freq B3LYP/6-31G(d) empiricaldispersion=gd3bj scf=xqc

CID_43159675_JID_6920_neutraal

0 1
C          2.49000       -0.13600        0.50400
N          1.28903        0.02210       -0.31639
C          0.47964        1.14582        0.16633
C         -0.97807        1.21666       -0.30081
C         -1.89448        0.32751        0.53955
N         -1.76407       -1.09157        0.24146
C         -0.44662       -1.68273        0.51423
C          0.60092       -1.25748       -0.53329
C         -2.63062       -1.62053       -0.73096
O         -3.40451       -0.90648       -1.36690
C         -2.60690       -3.05063       -0.97833
C         -2.63295       -4.10292       -0.08097
N         -2.63761       -5.24320       -0.84209
N         -2.66611       -5.01473       -2.16555
C         -2.68153       -3.68132       -2.24357
N         -2.66430       -4.15794        1.26937
H          3.03680        0.81098        0.57752
H          2.25217       -0.47718        1.51766
H          3.17960       -0.85609        0.04961
H          0.49112        1.18368        1.26420
H          0.97764        2.06369       -0.17210
H         -1.06237        0.98832       -1.36968
H         -1.31562        2.25335       -0.17527
H         -2.93428        0.63661        0.38088
H         -1.69677        0.46274        1.60965
H         -0.50342       -2.77104        0.49427
H         -0.14123       -1.40988        1.53088
H          0.12985       -1.21969       -1.52403
H          1.34932       -2.05683       -0.61644
H         -2.63582       -6.20265       -0.51922
H         -2.73665       -3.20993       -3.21725
H         -2.96335       -4.99464        1.76536
H         -2.87031       -3.30608        1.79173

--Link1--
%chk=JID_6920.chk
%mem=8GB
%nprocshared=4
# B3LYP/6-311++G(d,p) empiricaldispersion=gd3bj scf=xqc pop=npa geom=check

CID_43159675_JID_6920_Energie_neutraal

0 1

--Link1--
%chk=JID_6920.chk
%mem=8GB
%nprocshared=4
# B3LYP/6-311++G(d,p) empiricaldispersion=gd3bj scf=xqc pop=npa geom=check

CID_43159675_JID_6920_Energie_kation

1 2

--Link1--
%chk=JID_6920.chk
%mem=8GB
%nprocshared=4
# B3LYP/6-311++G(d,p) empiricaldispersion=gd3bj scf=xqc pop=npa geom=check

CID_43159675_JID_6920_Energie_anion

-1 2
