%chk=JID_9448.chk
%mem=8GB
%nprocshared=4
# opt freq B3LYP/6-31G(d) empiricaldispersion=gd3bj scf=xqc

CID_81648735_JID_9448_neutraal

0 1
C          1.04920       -0.06914       -0.05291
C          0.44841        0.04515       -1.45666
C          0.68849       -1.22971       -2.26609
N         -0.96644        0.38133       -1.39985
C         -1.93456       -0.34933       -0.76493
N         -3.08326        0.28522       -0.81826
N         -2.88284        1.43821       -1.53676
C         -1.61563        1.48275       -1.88236
S         -0.87420        2.77181       -2.75729
C         -0.91731        4.06234       -1.46953
C          0.11954        3.78588       -0.38826
O          1.20799        3.25376       -0.62505
N         -0.11765        4.15885        0.90242
C         -1.29173        4.78132        1.49737
C         -2.07839        3.83800        2.44420
C         -1.17046        3.31416        3.57267
C         -3.22433        4.65100        3.07918
C         -2.66249        2.63544        1.67923
O         -3.51766        3.07656        0.63545
H          0.64614       -0.93079        0.49068
H          0.83909        0.82422        0.54428
H          2.13612       -0.19079       -0.10950
H          0.96605        0.86022       -1.97087
H          0.22731       -2.10350       -1.79279
H          0.26841       -1.13708       -3.27370
H          1.76097       -1.42848       -2.36459
H         -1.75449       -1.29820       -0.27914
H         -0.66931        5.02392       -1.92917
H         -1.92949        4.12488       -1.07422
H          0.66803        3.96570        1.51267
H         -0.90985        5.63654        2.06858
H         -1.93806        5.19447        0.71876
H         -0.70117        4.14005        4.11870
H         -1.74294        2.72077        4.29483
H         -0.37250        2.67156        3.18482
H         -3.88719        5.07629        2.31771
H         -3.83385        4.02438        3.74007
H         -2.83324        5.48173        3.67761
H         -1.86026        2.02985        1.24560
H         -3.24594        1.98943        2.34445
H         -3.63618        2.31059        0.02754

--Link1--
%chk=JID_9448.chk
%mem=8GB
%nprocshared=4
# B3LYP/6-311++G(d,p) empiricaldispersion=gd3bj scf=xqc pop=npa geom=check

CID_81648735_JID_9448_Energie_neutraal

0 1

--Link1--
%chk=JID_9448.chk
%mem=8GB
%nprocshared=4
# B3LYP/6-311++G(d,p) empiricaldispersion=gd3bj scf=xqc pop=npa geom=check

CID_81648735_JID_9448_Energie_kation

1 2

--Link1--
%chk=JID_9448.chk
%mem=8GB
%nprocshared=4
# B3LYP/6-311++G(d,p) empiricaldispersion=gd3bj scf=xqc pop=npa geom=check

CID_81648735_JID_9448_Energie_anion

-1 2
