%chk=JID_5223.chk
%mem=8GB
%nprocshared=4
# opt freq B3LYP/6-31G(d) empiricaldispersion=gd3bj scf=xqc

CID_122021983_JID_5223_neutraal

0 1
C          1.08532       -0.04510       -0.02620
C          2.08145        0.99526        0.45814
C          2.51379        1.87948       -0.70786
C          1.71074        3.18207       -0.90312
C          2.81497        3.91681       -0.13810
N          3.63348        2.73374       -0.35708
C          4.96504        2.61348       -0.18098
O          5.65138        3.55157        0.23005
N          5.60475        1.45249       -0.45411
C          5.17465        0.29960       -1.22005
C          6.16012       -0.86450       -1.11237
C          6.31327       -1.40758        0.31058
C          5.05548       -2.04928        0.83200
O          4.06132       -2.35281        0.19488
O          5.13417       -2.31167        2.15069
H          0.20057        0.43035       -0.46186
H          0.76069       -0.67816        0.80528
H          1.53131       -0.68925       -0.79117
H          1.63262        1.58911        1.26351
H          2.94030        0.47545        0.89660
H          2.66711        1.34765       -1.65291
H          1.61903        3.49191       -1.95091
H          0.71981        3.21769       -0.44098
H          2.61461        4.10108        0.92131
H          3.19139        4.82158       -0.62127
H          6.60358        1.59617       -0.36793
H          4.19168       -0.02384       -0.88926
H          5.08492        0.61953       -2.26378
H          5.82660       -1.66918       -1.77907
H          7.14450       -0.53951       -1.47042
H          7.09807       -2.17217        0.31750
H          6.60944       -0.60414        0.99329
H          4.27470       -2.72809        2.37030

--Link1--
%chk=JID_5223.chk
%mem=8GB
%nprocshared=4
# B3LYP/6-311++G(d,p) empiricaldispersion=gd3bj scf=xqc pop=npa geom=check

CID_122021983_JID_5223_Energie_neutraal

0 1

--Link1--
%chk=JID_5223.chk
%mem=8GB
%nprocshared=4
# B3LYP/6-311++G(d,p) empiricaldispersion=gd3bj scf=xqc pop=npa geom=check

CID_122021983_JID_5223_Energie_kation

1 2

--Link1--
%chk=JID_5223.chk
%mem=8GB
%nprocshared=4
# B3LYP/6-311++G(d,p) empiricaldispersion=gd3bj scf=xqc pop=npa geom=check

CID_122021983_JID_5223_Energie_anion

-1 2
