%chk=JID_5547.chk
%mem=8GB
%nprocshared=4
# opt freq B3LYP/6-31G(d) empiricaldispersion=gd3bj scf=xqc

CID_116719256_JID_5547_neutraal

0 1
C          1.03991       -0.02477        0.08828
C          0.73341       -1.17453       -0.85839
C          1.11916       -2.54525       -0.29793
C          0.40584       -2.97767        1.00016
C         -1.16281       -2.99161        0.90356
C         -1.74657       -3.86533       -0.26623
C         -1.31503       -5.35258       -0.33965
C         -1.74836       -6.26476        0.79675
C         -3.28761       -3.75742       -0.40160
C         -3.76115       -2.37903       -0.84863
N         -1.70047       -3.33101        2.23998
C         -2.64028       -2.35301        2.77285
C         -3.12208       -2.80291        4.14443
O          0.88789       -4.28584        1.35931
C          2.03375       -4.25079        2.19740
H          0.42259       -0.07321        0.99011
H          0.83436        0.93155       -0.40326
H          2.09262       -0.03225        0.38788
H         -0.32603       -1.15177       -1.13370
H          1.29398       -1.01526       -1.78769
H          0.96068       -3.30476       -1.07328
H          2.20322       -2.55483       -0.12735
H          0.67411       -2.27237        1.79908
H         -1.44417       -1.95442        0.68541
H         -1.34915       -3.42534       -1.19189
H         -1.72432       -5.77282       -1.26874
H         -0.22990       -5.42553       -0.46331
H         -2.81940       -6.18264        1.00090
H         -1.54304       -7.30734        0.53043
H         -1.19287       -6.05913        1.71512
H         -3.63551       -4.47699       -1.15365
H         -3.78538       -4.03105        0.53437
H         -3.30601       -2.10186       -1.80493
H         -4.84769       -2.38303       -0.98299
H         -3.52121       -1.60197       -0.11926
H         -2.11416       -4.25768        2.23540
H         -2.15673       -1.37477        2.86953
H         -3.50953       -2.24158        2.11902
H         -2.28736       -2.89687        4.84715
H         -3.82781       -2.07299        4.55409
H         -3.63421       -3.76969        4.08788
H          2.87095       -3.75606        1.69776
H          1.80461       -3.74498        3.14018
H          2.32508       -5.28079        2.42047

--Link1--
%chk=JID_5547.chk
%mem=8GB
%nprocshared=4
# B3LYP/6-311++G(d,p) empiricaldispersion=gd3bj scf=xqc pop=npa geom=check

CID_116719256_JID_5547_Energie_neutraal

0 1

--Link1--
%chk=JID_5547.chk
%mem=8GB
%nprocshared=4
# B3LYP/6-311++G(d,p) empiricaldispersion=gd3bj scf=xqc pop=npa geom=check

CID_116719256_JID_5547_Energie_kation

1 2

--Link1--
%chk=JID_5547.chk
%mem=8GB
%nprocshared=4
# B3LYP/6-311++G(d,p) empiricaldispersion=gd3bj scf=xqc pop=npa geom=check

CID_116719256_JID_5547_Energie_anion

-1 2
