%chk=JID_10476.chk
%mem=8GB
%nprocshared=4
# opt freq B3LYP/6-31G(d) empiricaldispersion=gd3bj scf=xqc

CID_80315760_JID_10476_neutraal

0 1
C          1.06239       -0.07071       -0.03327
C          0.64082       -0.89052       -1.24964
N          0.94044       -2.30757       -1.09795
C          0.04341       -3.23595       -1.78793
C          0.26292       -3.60161       -3.27604
C          0.22777       -2.41945       -4.25221
C         -1.17849       -1.84865       -4.42105
N         -2.11670       -2.87542       -4.87311
C         -2.17165       -4.00903       -3.95245
C         -0.79122       -4.63147       -3.73610
C          2.35355       -2.70365       -1.00209
C          3.25015       -2.41637       -2.18460
N          3.53368       -3.28730       -3.13216
C          4.41332       -2.75112       -4.06317
C          4.79716       -1.45235       -3.78160
S          4.08495       -0.91689       -2.32087
C          4.81166       -3.59970       -5.26283
C          3.82305       -3.34960       -6.41658
C          6.23719       -3.26435       -5.74642
C          4.78148       -5.10138       -4.90614
H          0.61562       -0.46957        0.88374
H          0.72269        0.96423       -0.14666
H          2.14807       -0.04744        0.09427
H         -0.44228       -0.74984       -1.35165
H          1.08867       -0.46421       -2.15081
H          0.07623       -4.17608       -1.21913
H         -0.98600       -2.88719       -1.64176
H          1.23321       -4.09910       -3.36086
H          0.92223       -1.63112       -3.95550
H          0.58241       -2.76623       -5.23254
H         -1.53324       -1.39568       -3.48886
H         -1.14948       -1.04939       -5.16984
H         -3.04655       -2.46842       -4.96732
H         -2.84004       -4.76864       -4.37297
H         -2.61303       -3.69898       -2.99862
H         -0.45443       -5.08088       -4.68023
H         -0.86524       -5.45277       -3.01348
H          2.79189       -2.25158       -0.10347
H          2.40358       -3.78270       -0.80180
H          5.45523       -0.80561       -4.34315
H          3.81809       -2.29502       -6.71614
H          4.08169       -3.94636       -7.29863
H          2.79928       -3.61150       -6.12548
H          6.96988       -3.39124       -4.94075
H          6.53770       -3.91492       -6.57602
H          6.31223       -2.23094       -6.10351
H          5.45033       -5.32196       -4.06581
H          3.77471       -5.42926       -4.62140
H          5.09652       -5.71832       -5.75563

--Link1--
%chk=JID_10476.chk
%mem=8GB
%nprocshared=4
# B3LYP/6-311++G(d,p) empiricaldispersion=gd3bj scf=xqc pop=npa geom=check

CID_80315760_JID_10476_Energie_neutraal

0 1

--Link1--
%chk=JID_10476.chk
%mem=8GB
%nprocshared=4
# B3LYP/6-311++G(d,p) empiricaldispersion=gd3bj scf=xqc pop=npa geom=check

CID_80315760_JID_10476_Energie_kation

1 2

--Link1--
%chk=JID_10476.chk
%mem=8GB
%nprocshared=4
# B3LYP/6-311++G(d,p) empiricaldispersion=gd3bj scf=xqc pop=npa geom=check

CID_80315760_JID_10476_Energie_anion

-1 2
