%chk=JID_10168.chk
%mem=8GB
%nprocshared=4
# opt freq B3LYP/6-31G(d) empiricaldispersion=gd3bj scf=xqc

CID_79529206_JID_10168_neutraal

0 1
C         -3.37900       -0.58700       -0.01900
C         -1.91979       -0.24283        0.07721
C         -0.95517       -1.11027       -0.47162
C          0.40781       -0.78472       -0.34689
C          0.75317        0.37959        0.32162
C         -0.16526        1.25555        0.89154
C         -1.51663        0.91519        0.76035
O          2.10274        0.53462        0.33436
C          2.65353       -0.53985       -0.31793
C          1.63487       -1.36724       -0.76142
C          4.09583       -0.56945       -0.44293
O          4.79139        0.44582       -0.50458
N          4.76323       -1.77061       -0.49635
C          4.30544       -3.07076       -0.06239
C          4.02587       -3.95541       -1.22074
C          3.35584       -5.16253       -1.21396
N          3.34624       -5.60362       -2.51074
N          3.97017       -4.77801       -3.36518
C          4.38392       -3.77981       -2.58222
N          2.77972       -5.86744       -0.22285
H         -3.58471       -1.16835       -0.92393
H         -3.68288       -1.17226        0.85426
H         -3.99099        0.31967       -0.06987
H         -1.25406       -2.01678       -0.99032
H          0.15603        2.15252        1.40661
H         -2.26409        1.57522        1.19788
H          1.75017       -2.27239       -1.33940
H          5.76309       -1.63844       -0.57523
H          5.11352       -3.50511        0.53709
H          3.43253       -2.97226        0.58918
H          2.93287       -6.45281       -2.87518
H          4.92682       -2.95805       -3.03320
H          2.43084       -6.81536       -0.34497
H          2.87975       -5.60195        0.75403

--Link1--
%chk=JID_10168.chk
%mem=8GB
%nprocshared=4
# B3LYP/6-311++G(d,p) empiricaldispersion=gd3bj scf=xqc pop=npa geom=check

CID_79529206_JID_10168_Energie_neutraal

0 1

--Link1--
%chk=JID_10168.chk
%mem=8GB
%nprocshared=4
# B3LYP/6-311++G(d,p) empiricaldispersion=gd3bj scf=xqc pop=npa geom=check

CID_79529206_JID_10168_Energie_kation

1 2

--Link1--
%chk=JID_10168.chk
%mem=8GB
%nprocshared=4
# B3LYP/6-311++G(d,p) empiricaldispersion=gd3bj scf=xqc pop=npa geom=check

CID_79529206_JID_10168_Energie_anion

-1 2
