%chk=JID_3257.chk
%mem=8GB
%nprocshared=4
# opt freq B3LYP/6-31G(d) empiricaldispersion=gd3bj scf=xqc

CID_28347165_JID_3257_neutraal

0 1
C          1.06000        0.65500        0.00200
C         -0.10421        0.87607       -0.69062
O         -0.80139       -0.27855       -0.82550
C         -0.07764       -1.27889       -0.22461
C          1.07330       -0.72718        0.31319
C         -0.64945       -2.61028       -0.23245
O         -1.86256       -2.82644       -0.26863
N          0.16375       -3.72205       -0.19734
C          1.57264       -3.83988       -0.51721
C          2.40956       -4.23549        0.69795
C          2.04659       -5.59170        1.31681
C          2.21767       -6.79007        0.39002
O          3.56079       -6.89862       -0.05561
H          1.79775        1.40012        0.26471
H         -0.56464        1.75227       -1.12601
H          1.82715       -1.24947        0.88251
H         -0.39295       -4.56800       -0.22366
H          1.65580       -4.59432       -1.30616
H          1.94617       -2.90793       -0.94836
H          3.46819       -4.23611        0.41286
H          2.29944       -3.47277        1.47791
H          2.69593       -5.73487        2.18987
H          1.01618       -5.56858        1.68948
H          1.97578       -7.70844        0.93457
H          1.55370       -6.74081       -0.47819
H          3.69994       -6.24966       -0.76468

--Link1--
%chk=JID_3257.chk
%mem=8GB
%nprocshared=4
# B3LYP/6-311++G(d,p) empiricaldispersion=gd3bj scf=xqc pop=npa geom=check

CID_28347165_JID_3257_Energie_neutraal

0 1

--Link1--
%chk=JID_3257.chk
%mem=8GB
%nprocshared=4
# B3LYP/6-311++G(d,p) empiricaldispersion=gd3bj scf=xqc pop=npa geom=check

CID_28347165_JID_3257_Energie_kation

1 2

--Link1--
%chk=JID_3257.chk
%mem=8GB
%nprocshared=4
# B3LYP/6-311++G(d,p) empiricaldispersion=gd3bj scf=xqc pop=npa geom=check

CID_28347165_JID_3257_Energie_anion

-1 2
