%chk=JID_10318.chk
%mem=8GB
%nprocshared=4
# opt freq B3LYP/6-31G(d) empiricaldispersion=gd3bj scf=xqc

CID_80441756_JID_10318_neutraal

0 1
C          0.94737        0.04826       -0.07000
C          0.55665        0.65668       -1.40836
N          0.88134       -0.27529       -2.48371
C          0.42295        0.16980       -3.81123
C          1.11786        1.44645       -4.34786
C          2.59249        1.34457       -4.48292
N          3.43577        0.46186       -3.99720
C          4.63533        0.89292       -4.50116
N          4.56112        2.01055       -5.23794
O          3.19971        2.31456       -5.22685
C          5.92725        0.16264       -4.29845
C          6.02000       -0.55802       -2.94159
C          5.25030       -1.87939       -2.87981
C          5.58018       -2.79401       -4.05380
C          5.39447       -2.08619       -5.39073
C          6.22061       -0.80288       -5.45940
C          0.56401       -1.00018       -4.81948
C         -0.19012       -2.29666       -4.44813
C         -1.70113       -2.08690       -4.34661
C          0.11172       -3.38149       -5.48672
H          0.41369       -0.89140        0.10880
H          0.69938        0.73691        0.74409
H          2.02303       -0.15369       -0.02492
H         -0.51844        0.86808       -1.39823
H          1.09089        1.60413       -1.53275
H          1.89578       -0.42527       -2.51828
H         -0.64585        0.40764       -3.74077
H          0.69185        1.69100       -5.32946
H          0.88584        2.29825       -3.69800
H          6.71757        0.92730       -4.30304
H          7.07788       -0.77561       -2.74190
H          5.68119        0.09953       -2.13158
H          4.17182       -1.68930       -2.85996
H          5.48808       -2.39286       -1.94080
H          4.94373       -3.68535       -4.01652
H          6.61753       -3.13980       -3.96563
H          4.33301       -1.85889       -5.54535
H          5.69515       -2.75698       -6.20372
H          6.04959       -0.31200       -6.42540
H          7.28459       -1.07259       -5.43141
H          0.21344       -0.65865       -5.80292
H          1.62503       -1.25134       -4.94518
H          0.17227       -2.66265       -3.47985
H         -2.10523       -1.65748       -5.26949
H         -2.21359       -3.03781       -4.16439
H         -1.95654       -1.41982       -3.51798
H          1.18803       -3.57620       -5.54443
H         -0.38213       -4.32245       -5.22176
H         -0.23400       -3.08588       -6.48314

--Link1--
%chk=JID_10318.chk
%mem=8GB
%nprocshared=4
# B3LYP/6-311++G(d,p) empiricaldispersion=gd3bj scf=xqc pop=npa geom=check

CID_80441756_JID_10318_Energie_neutraal

0 1

--Link1--
%chk=JID_10318.chk
%mem=8GB
%nprocshared=4
# B3LYP/6-311++G(d,p) empiricaldispersion=gd3bj scf=xqc pop=npa geom=check

CID_80441756_JID_10318_Energie_kation

1 2

--Link1--
%chk=JID_10318.chk
%mem=8GB
%nprocshared=4
# B3LYP/6-311++G(d,p) empiricaldispersion=gd3bj scf=xqc pop=npa geom=check

CID_80441756_JID_10318_Energie_anion

-1 2
