%chk=JID_7643.chk
%mem=8GB
%nprocshared=4
# opt freq B3LYP/6-31G(d) empiricaldispersion=gd3bj scf=xqc

CID_142873416_JID_7643_neutraal

0 1
C          1.00172       -0.07922        0.06101
C         -0.34540        0.34068       -0.48211
C          3.15480       -4.92397       -0.72645
C          2.04305       -4.73438        0.31263
N          0.71549       -4.87572       -0.28988
C          0.50303       -3.83749       -1.30901
C          1.66595       -3.62722       -2.25162
C          2.87879       -4.15558       -1.99280
N          3.92688       -4.00817       -2.86789
C          3.86305       -3.33237       -4.06245
O          4.83179       -3.25417       -4.80949
C          2.56249       -2.69830       -4.38678
C          2.43754       -1.96396       -5.57382
C          1.22959       -1.34384       -5.88023
C          0.15480       -1.45487       -5.00159
C          0.28066       -2.19134       -3.81752
C          1.48565       -2.83319       -3.49142
H          0.88431       -0.84996        0.82859
H          1.51965        0.77501        0.50706
H          1.62975       -0.48261       -0.73895
H         -0.86611       -0.51359       -0.92453
H         -0.97130        0.74863        0.31717
H         -0.22681        1.10813       -1.25276
H          4.10577       -4.60096       -0.28610
H          3.25212       -5.98836       -0.97492
H          2.15820       -5.47966        1.10743
H          2.13038       -3.75139        0.79323
H          0.65328       -5.78576       -0.74700
H         -0.38981       -4.13316       -1.87170
H          0.26716       -2.89354       -0.80497
H          4.82756       -4.42287       -2.65963
H          3.28223       -1.87357       -6.25349
H          1.12909       -0.77163       -6.79912
H         -0.78781       -0.96512       -5.23612
H         -0.58401       -2.24167       -3.16115

--Link1--
%chk=JID_7643.chk
%mem=8GB
%nprocshared=4
# B3LYP/6-311++G(d,p) empiricaldispersion=gd3bj scf=xqc pop=npa geom=check

CID_142873416_JID_7643_Energie_neutraal

0 1

--Link1--
%chk=JID_7643.chk
%mem=8GB
%nprocshared=4
# B3LYP/6-311++G(d,p) empiricaldispersion=gd3bj scf=xqc pop=npa geom=check

CID_142873416_JID_7643_Energie_kation

1 2

--Link1--
%chk=JID_7643.chk
%mem=8GB
%nprocshared=4
# B3LYP/6-311++G(d,p) empiricaldispersion=gd3bj scf=xqc pop=npa geom=check

CID_142873416_JID_7643_Energie_anion

-1 2
