%chk=JID_10107.chk
%mem=8GB
%nprocshared=4
# opt freq B3LYP/6-31G(d) empiricaldispersion=gd3bj scf=xqc

CID_107767330_JID_10107_neutraal

0 1
C          0.99565       -0.09001        0.04334
C          1.36640        1.28586        0.60002
C          1.93088        2.16085       -0.52409
C          0.17137        1.99725        1.25544
C         -0.58335        1.20383        2.31549
S          0.24345        0.97925        3.88329
O          1.15850        2.09387        4.05692
O         -0.78587        0.75037        4.88269
C          1.23970       -0.50084        3.78285
C          0.51755       -1.79392        4.13752
O          0.13505       -2.54766        2.97809
C         -1.10050       -2.33533        2.44050
C         -1.21593       -2.60975        1.07064
C         -2.36308       -2.25054        0.35076
C         -3.42483       -1.64367        1.01416
C         -3.34388       -1.48386        2.41320
C         -2.19804       -1.83392        3.12412
C         -4.65961       -1.09902        0.36317
C         -4.92205       -1.19408       -1.13098
N         -5.13977       -1.27294       -2.37050
H          0.11020       -0.03659       -0.59853
H          0.80588       -0.80059        0.84370
H          1.81809       -0.50133       -0.55226
H          2.15965        1.16008        1.34536
H          1.19734        2.30068       -1.32589
H          2.21306        3.14905       -0.14602
H          2.82478        1.70339       -0.96135
H          0.50427        2.95476        1.67418
H         -0.55042        2.25084        0.46654
H         -1.49756        1.75944        2.56041
H         -0.90265        0.24024        1.93860
H          1.73157       -0.53841        2.81280
H          2.02048       -0.33366        4.53598
H          1.25609       -2.43759        4.63213
H         -0.27782       -1.68204        4.87723
H         -0.37252       -3.04897        0.54089
H         -2.38813       -2.42499       -0.72280
H         -4.17540       -1.04359        2.96450
H         -2.19500       -1.66232        4.19537
H         -5.52467       -1.57380        0.84701
H         -4.71505       -0.02882        0.60717

--Link1--
%chk=JID_10107.chk
%mem=8GB
%nprocshared=4
# B3LYP/6-311++G(d,p) empiricaldispersion=gd3bj scf=xqc pop=npa geom=check

CID_107767330_JID_10107_Energie_neutraal

0 1

--Link1--
%chk=JID_10107.chk
%mem=8GB
%nprocshared=4
# B3LYP/6-311++G(d,p) empiricaldispersion=gd3bj scf=xqc pop=npa geom=check

CID_107767330_JID_10107_Energie_kation

1 2

--Link1--
%chk=JID_10107.chk
%mem=8GB
%nprocshared=4
# B3LYP/6-311++G(d,p) empiricaldispersion=gd3bj scf=xqc pop=npa geom=check

CID_107767330_JID_10107_Energie_anion

-1 2
