%chk=JID_4792.chk
%mem=8GB
%nprocshared=4
# opt freq B3LYP/6-31G(d) empiricaldispersion=gd3bj scf=xqc

CID_65617880_JID_4792_neutraal

0 1
C          1.08428       -0.01831       -0.05062
C          0.33040        1.08231       -0.79122
C          1.12821        1.60823       -1.98478
N         -1.05190        0.79965       -1.15318
C         -1.72880       -0.34884       -1.49823
N         -2.99817       -0.04298       -1.71025
C         -3.05397        1.29562       -1.50104
N         -1.90175        1.85828       -1.15272
C         -1.20793       -1.74367       -1.59092
C         -0.71505       -2.13687       -2.98124
C         -0.72256       -3.66551       -3.29398
C         -2.06569       -3.44052       -4.02108
C         -1.63757       -1.97210       -4.22801
N          0.62912       -1.63863       -3.30766
H          1.40153       -0.82232       -0.71874
H          0.47734       -0.44510        0.75458
H          1.99478        0.38923        0.40363
H          0.25889        1.91130       -0.07118
H          1.22248        0.86062       -2.77482
H          0.64382        2.48717       -2.42472
H          2.13699        1.90418       -1.67770
H         -3.96033        1.87813       -1.59999
H         -0.45145       -1.95346       -0.83209
H         -2.04609       -2.39994       -1.31534
H          0.06701       -4.02447       -3.96686
H         -0.76901       -4.33710       -2.43138
H         -2.94417       -3.55831       -3.37647
H         -2.21533       -4.02414       -4.93293
H         -2.44937       -1.24391       -4.15286
H         -1.12923       -1.81241       -5.18753
H          1.37996       -2.13124       -2.82367
H          0.87082       -1.68825       -4.29831

--Link1--
%chk=JID_4792.chk
%mem=8GB
%nprocshared=4
# B3LYP/6-311++G(d,p) empiricaldispersion=gd3bj scf=xqc pop=npa geom=check

CID_65617880_JID_4792_Energie_neutraal

0 1

--Link1--
%chk=JID_4792.chk
%mem=8GB
%nprocshared=4
# B3LYP/6-311++G(d,p) empiricaldispersion=gd3bj scf=xqc pop=npa geom=check

CID_65617880_JID_4792_Energie_kation

1 2

--Link1--
%chk=JID_4792.chk
%mem=8GB
%nprocshared=4
# B3LYP/6-311++G(d,p) empiricaldispersion=gd3bj scf=xqc pop=npa geom=check

CID_65617880_JID_4792_Energie_anion

-1 2
