%chk=JID_7684.chk
%mem=8GB
%nprocshared=4
# opt freq B3LYP/6-31G(d) empiricaldispersion=gd3bj scf=xqc

CID_138527253_JID_7684_neutraal

0 1
C          0.96059        0.02282       -0.08903
C          1.96517       -0.89173        0.60742
C          2.94649       -0.10665        1.47074
O          1.33325       -1.97198        1.29461
C          0.54258       -1.66078        2.42083
N         -0.34374       -2.75956        2.78049
C         -1.57621       -2.78784        1.98315
C         -1.42360       -3.35036        0.57556
C         -0.76997       -4.70405        0.65043
O         -1.25164       -5.68440        0.08946
C          0.47294       -4.76566        1.46395
C          1.63154       -5.32626        1.07632
N          2.07775       -5.96203       -0.07488
C          3.42802       -6.52103       -0.15836
C          1.29331       -6.08716       -1.30143
C          0.30370       -4.08462        2.79886
O          1.34405       -1.39091        3.54732
H          0.39128        0.62406        0.62644
H          0.23875       -0.56425       -0.66539
H          1.47073        0.71242       -0.76940
H          2.55292       -1.37534       -0.18229
H          2.42835        0.50418        2.21690
H          3.61795       -0.78486        2.00735
H          3.55155        0.56703        0.85525
H         -0.05181       -0.75897        2.24804
H         -2.30567       -3.40371        2.52710
H         -2.02815       -1.78936        1.93565
H         -0.82667       -2.70222       -0.07227
H         -2.41217       -3.45982        0.11601
H          2.44519       -5.27696        1.80137
H          3.43016       -7.45405       -0.73272
H          4.09803       -5.80672       -0.64760
H          3.83337       -6.75309        0.83274
H          0.55622       -6.88919       -1.20146
H          0.79379       -5.14606       -1.55153
H          1.93123       -6.33425       -2.15816
H          1.26115       -4.02607        3.33223
H         -0.31758       -4.74189        3.42344
H          1.00489       -2.01819        4.20341

--Link1--
%chk=JID_7684.chk
%mem=8GB
%nprocshared=4
# B3LYP/6-311++G(d,p) empiricaldispersion=gd3bj scf=xqc pop=npa geom=check

CID_138527253_JID_7684_Energie_neutraal

0 1

--Link1--
%chk=JID_7684.chk
%mem=8GB
%nprocshared=4
# B3LYP/6-311++G(d,p) empiricaldispersion=gd3bj scf=xqc pop=npa geom=check

CID_138527253_JID_7684_Energie_kation

1 2

--Link1--
%chk=JID_7684.chk
%mem=8GB
%nprocshared=4
# B3LYP/6-311++G(d,p) empiricaldispersion=gd3bj scf=xqc pop=npa geom=check

CID_138527253_JID_7684_Energie_anion

-1 2
