%chk=JID_2339.chk
%mem=8GB
%nprocshared=4
# opt freq B3LYP/6-31G(d) empiricaldispersion=gd3bj scf=xqc

CID_105148762_JID_2339_neutraal

0 1
C         -2.13100       -0.04600       -0.06100
N         -0.68983        0.04289       -0.12058
C          0.21120       -0.99111       -0.28440
C          1.45083       -0.38174       -0.21251
C          1.19213        0.98949       -0.04751
N         -0.11079        1.25494       -0.01196
C         -0.23556       -2.41074       -0.46517
C          0.69752       -3.30619       -1.30816
C          2.05571       -3.74043       -0.74763
S          1.96372       -4.85227        0.69471
C          3.17261       -4.02973        1.76330
N         -0.58358       -2.96393        0.83634
H         -2.54651        0.93539        0.18398
H         -2.49693       -0.36640       -1.03929
H         -2.41021       -0.76091        0.71571
H          2.42585       -0.83544       -0.27273
H          1.89807        1.80440        0.04474
H         -1.17104       -2.37916       -1.03992
H          0.14094       -4.21416       -1.58194
H          0.88991       -2.78828       -2.25830
H          2.58298       -4.29959       -1.52921
H          2.68501       -2.88180       -0.51772
H          4.15290       -4.00390        1.28050
H          2.84584       -3.01120        1.99002
H          3.25976       -4.58275        2.70201
H         -0.83953       -3.94570        0.72012
H          0.26217       -3.00380        1.40772

--Link1--
%chk=JID_2339.chk
%mem=8GB
%nprocshared=4
# B3LYP/6-311++G(d,p) empiricaldispersion=gd3bj scf=xqc pop=npa geom=check

CID_105148762_JID_2339_Energie_neutraal

0 1

--Link1--
%chk=JID_2339.chk
%mem=8GB
%nprocshared=4
# B3LYP/6-311++G(d,p) empiricaldispersion=gd3bj scf=xqc pop=npa geom=check

CID_105148762_JID_2339_Energie_kation

1 2

--Link1--
%chk=JID_2339.chk
%mem=8GB
%nprocshared=4
# B3LYP/6-311++G(d,p) empiricaldispersion=gd3bj scf=xqc pop=npa geom=check

CID_105148762_JID_2339_Energie_anion

-1 2
