%chk=JID_9757.chk
%mem=8GB
%nprocshared=4
# opt freq B3LYP/6-31G(d) empiricaldispersion=gd3bj scf=xqc

CID_47115614_JID_9757_neutraal

0 1
C          1.06625       -0.06999        0.02668
C          0.57047        0.04976        1.46989
C          1.00589        1.33218        2.15995
C          1.42259        1.29027        3.50137
C          1.79396        2.46612        4.16274
C          1.76891        3.69585        3.50340
C          1.34358        3.75036        2.17876
C          0.95722        2.58103        1.51603
S          2.32549        2.40343        5.84794
O          2.26456        1.03893        6.31831
O          3.50415        3.22429        5.99424
N          1.08605        3.21020        6.64224
N         -0.88022       -0.04610        1.50663
C         -1.66643       -0.84564        2.29973
O         -2.88577       -0.65087        2.26348
C         -0.97787       -1.93089        3.16802
C         -1.88811       -2.82937        4.05511
C         -0.92974       -3.99438        3.74792
C         -0.54865       -3.24594        2.45778
H          0.60452        0.67164       -0.63407
H          0.81430       -1.05643       -0.37931
H          2.15336        0.05176       -0.02890
H          1.00449       -0.79531        2.01315
H          1.45416        0.34110        4.03310
H          2.07002        4.60650        4.01560
H          1.30680        4.70526        1.65925
H          0.61296        2.66316        0.48738
H          0.60426        2.57107        7.27527
H          1.45124        4.04589        7.09950
H         -1.41192        0.67538        1.03536
H         -0.16980       -1.50494        3.77946
H         -1.95320       -2.54200        5.10806
H         -2.90144       -2.98138        3.66582
H         -1.39738       -4.97250        3.61162
H         -0.10481       -4.08789        4.46343
H         -1.16756       -3.51196        1.59267
H          0.50459       -3.31194        2.17293

--Link1--
%chk=JID_9757.chk
%mem=8GB
%nprocshared=4
# B3LYP/6-311++G(d,p) empiricaldispersion=gd3bj scf=xqc pop=npa geom=check

CID_47115614_JID_9757_Energie_neutraal

0 1

--Link1--
%chk=JID_9757.chk
%mem=8GB
%nprocshared=4
# B3LYP/6-311++G(d,p) empiricaldispersion=gd3bj scf=xqc pop=npa geom=check

CID_47115614_JID_9757_Energie_kation

1 2

--Link1--
%chk=JID_9757.chk
%mem=8GB
%nprocshared=4
# B3LYP/6-311++G(d,p) empiricaldispersion=gd3bj scf=xqc pop=npa geom=check

CID_47115614_JID_9757_Energie_anion

-1 2
