%chk=JID_10234.chk
%mem=8GB
%nprocshared=4
# opt freq B3LYP/6-31G(d) empiricaldispersion=gd3bj scf=xqc

CID_84600304_JID_10234_neutraal

0 1
C          1.02460       -0.05051        0.08273
C          0.80527        1.38067       -0.38379
C          1.34457        1.59161       -1.76817
C          0.60235        1.98213       -2.81679
C          1.15061        2.18321       -4.19701
O          0.49338        1.27436       -5.08880
C          1.12429        0.08715       -5.27105
O          2.18899       -0.25963       -4.79329
C          0.27221       -0.75948       -6.11942
C         -0.26518       -0.23486       -7.29251
N         -1.03637       -0.90674       -8.18625
C         -1.23646       -2.19547       -7.83811
C         -0.76303       -2.83763       -6.70171
C          0.00445       -2.09225       -5.79223
O          0.50851       -2.69022       -4.66500
C         -0.34757       -2.45225       -3.54658
C         -1.24289       -4.15906       -6.82016
N         -1.97161       -4.35172       -7.92528
N         -1.94210       -3.14234       -8.53273
C         -2.61831       -2.96565       -9.79292
H          0.51162       -0.76285       -0.57243
H          0.63411       -0.18144        1.09699
H          2.08980       -0.30528        0.09560
H         -0.26459        1.61519       -0.33865
H          1.31416        2.06841        0.30104
H          2.40869        1.40235       -1.90690
H         -0.46121        2.16841       -2.69106
H          0.90952        3.19757       -4.53240
H          2.24173        2.08640       -4.24382
H         -0.07214        0.79931       -7.57337
H         -0.40555       -1.38537       -3.30664
H         -1.35051       -2.85558       -3.72492
H          0.07809       -2.97050       -2.68227
H         -1.09091       -4.98751       -6.14011
H         -2.23651       -3.70985      -10.49665
H         -3.68947       -3.10828       -9.63000
H         -2.43128       -1.96221      -10.18160

--Link1--
%chk=JID_10234.chk
%mem=8GB
%nprocshared=4
# B3LYP/6-311++G(d,p) empiricaldispersion=gd3bj scf=xqc pop=npa geom=check

CID_84600304_JID_10234_Energie_neutraal

0 1

--Link1--
%chk=JID_10234.chk
%mem=8GB
%nprocshared=4
# B3LYP/6-311++G(d,p) empiricaldispersion=gd3bj scf=xqc pop=npa geom=check

CID_84600304_JID_10234_Energie_kation

1 2

--Link1--
%chk=JID_10234.chk
%mem=8GB
%nprocshared=4
# B3LYP/6-311++G(d,p) empiricaldispersion=gd3bj scf=xqc pop=npa geom=check

CID_84600304_JID_10234_Energie_anion

-1 2
