%chk=JID_2349.chk
%mem=8GB
%nprocshared=4
# opt freq B3LYP/6-31G(d) empiricaldispersion=gd3bj scf=xqc

CID_25063349_JID_2349_neutraal

0 1
C          1.06793        0.04543       -0.05764
C          0.06974       -0.13322       -1.19066
C          0.15996       -1.50492       -1.85243
N         -0.15606       -2.60359       -0.94744
C         -1.40557       -2.85172       -0.39368
C         -1.25252       -3.88254        0.48591
N          0.08266       -4.25404        0.44367
C          0.73751       -3.41911       -0.37069
C          0.69363       -5.20402        1.35332
C         -1.84154       -1.43571        2.81551
O         -1.33249       -2.55527        3.09839
O         -2.19120       -0.98767        1.68934
H          0.86872       -0.65043        0.76296
H          1.00453        1.06195        0.34341
H          2.09210       -0.11817       -0.40751
H         -0.94241        0.03551       -0.80712
H          0.25556        0.63568       -1.94951
H         -0.54006       -1.55898       -2.69437
H          1.16536       -1.66875       -2.25746
H         -2.23524       -2.20907       -0.63432
H         -1.91110       -4.34911        1.19841
H          1.80726       -3.40037       -0.53173
H          0.25550       -6.19152        1.18340
H          1.77021       -5.25509        1.16847
H          0.51789       -4.89093        2.38561
H         -2.00306       -0.73424        3.69320

--Link1--
%chk=JID_2349.chk
%mem=8GB
%nprocshared=4
# B3LYP/6-311++G(d,p) empiricaldispersion=gd3bj scf=xqc pop=npa geom=check

CID_25063349_JID_2349_Energie_neutraal

0 1

--Link1--
%chk=JID_2349.chk
%mem=8GB
%nprocshared=4
# B3LYP/6-311++G(d,p) empiricaldispersion=gd3bj scf=xqc pop=npa geom=check

CID_25063349_JID_2349_Energie_kation

1 2

--Link1--
%chk=JID_2349.chk
%mem=8GB
%nprocshared=4
# B3LYP/6-311++G(d,p) empiricaldispersion=gd3bj scf=xqc pop=npa geom=check

CID_25063349_JID_2349_Energie_anion

-1 2
