%chk=JID_8190.chk
%mem=8GB
%nprocshared=4
# opt freq B3LYP/6-31G(d) empiricaldispersion=gd3bj scf=xqc

CID_124118113_JID_8190_neutraal

0 1
C          1.04383       -0.00141       -0.08987
C          0.37963        0.64966       -1.05194
C         -1.08098        0.61187       -1.16099
C         -1.60753       -0.16229       -2.20640
C         -2.99614       -0.28307       -2.39603
C         -3.89142        0.37256       -1.54157
C         -3.36491        1.15278       -0.50083
C         -1.97635        1.27207       -0.31002
S         -1.42376        2.32365        1.01173
O         -2.47488        3.28099        1.28297
O         -0.88869        1.47500        2.05368
O         -0.17691        3.15746        0.41925
C         -5.35226        0.30843       -1.63132
C         -6.04448       -0.77818       -1.26988
S         -3.54831       -1.25290       -3.77900
O         -2.48127       -1.27517       -4.75668
O         -4.12022       -2.47510       -3.25813
O         -4.76598       -0.42619       -4.43839
H          0.53664       -0.58408        0.67563
H          2.12937        0.01825       -0.05547
H          0.91345        1.19926       -1.82452
H         -0.92635       -0.68271       -2.88168
H         -4.04624        1.67315        0.17433
H          0.63501        2.81762        0.85167
H         -5.86200        1.20984       -1.96519
H         -7.12973       -0.78445       -1.31604
H         -5.56118       -1.68099       -0.90375
H         -5.59208       -0.91894       -4.24740

--Link1--
%chk=JID_8190.chk
%mem=8GB
%nprocshared=4
# B3LYP/6-311++G(d,p) empiricaldispersion=gd3bj scf=xqc pop=npa geom=check

CID_124118113_JID_8190_Energie_neutraal

0 1

--Link1--
%chk=JID_8190.chk
%mem=8GB
%nprocshared=4
# B3LYP/6-311++G(d,p) empiricaldispersion=gd3bj scf=xqc pop=npa geom=check

CID_124118113_JID_8190_Energie_kation

1 2

--Link1--
%chk=JID_8190.chk
%mem=8GB
%nprocshared=4
# B3LYP/6-311++G(d,p) empiricaldispersion=gd3bj scf=xqc pop=npa geom=check

CID_124118113_JID_8190_Energie_anion

-1 2
