%chk=JID_5953.chk
%mem=8GB
%nprocshared=4
# opt freq B3LYP/6-31G(d) empiricaldispersion=gd3bj scf=xqc

CID_87662668_JID_5953_neutraal

0 1
C          1.08392        0.04466        0.03103
C          1.12257        1.09955       -1.06800
C          1.79761        0.72733       -2.43226
C          1.08012       -0.54042       -2.98946
C          1.42275        1.85975       -3.48476
C          1.82370        3.31891       -3.21473
C          1.58398        4.18930       -4.44564
O          1.06526        3.85793       -2.13827
C          3.38403        0.46795       -2.32478
C          4.08759        1.37779       -1.28842
C          3.75199       -0.98194       -1.90386
C          4.03718        0.63342       -3.71068
O          3.97036       -0.18358       -4.62485
O          4.69983        1.82373       -3.85005
O          5.02964        1.99464       -5.27553
H          0.60622       -0.88105       -0.29833
H          0.49810        0.42392        0.87606
H          2.07729       -0.18520        0.41856
H          0.07914        1.38207       -1.26517
H          1.59477        1.99158       -0.64415
H         -0.00074       -0.37467       -3.07454
H          1.44653       -0.80066       -3.98822
H          1.21069       -1.41798       -2.35081
H          1.80983        1.56690       -4.46897
H          0.32795        1.84897       -3.59694
H          2.87668        3.40282       -2.95193
H          0.53169        4.16348       -4.74916
H          1.82333        5.23536       -4.22546
H          2.20005        3.86100       -5.28842
H          0.13104        3.87900       -2.40937
H          3.81295        1.11544       -0.26224
H          5.17855        1.27860       -1.35351
H          3.86065        2.43583       -1.42479
H          3.42955       -1.72703       -2.63933
H          4.84063       -1.09657       -1.82118
H          3.32587       -1.25985       -0.93839
H          5.19201        1.05277       -5.49307

--Link1--
%chk=JID_5953.chk
%mem=8GB
%nprocshared=4
# B3LYP/6-311++G(d,p) empiricaldispersion=gd3bj scf=xqc pop=npa geom=check

CID_87662668_JID_5953_Energie_neutraal

0 1

--Link1--
%chk=JID_5953.chk
%mem=8GB
%nprocshared=4
# B3LYP/6-311++G(d,p) empiricaldispersion=gd3bj scf=xqc pop=npa geom=check

CID_87662668_JID_5953_Energie_kation

1 2

--Link1--
%chk=JID_5953.chk
%mem=8GB
%nprocshared=4
# B3LYP/6-311++G(d,p) empiricaldispersion=gd3bj scf=xqc pop=npa geom=check

CID_87662668_JID_5953_Energie_anion

-1 2
