%chk=JID_8162.chk
%mem=8GB
%nprocshared=4
# opt freq B3LYP/6-31G(d) empiricaldispersion=gd3bj scf=xqc

CID_84084220_JID_8162_neutraal

0 1
C         -0.72000        1.26100        0.22400
C          0.25064        0.87550       -0.89076
N          0.23520       -0.56600       -1.12874
C         -1.10068       -1.02602       -1.50272
C         -2.12327       -0.69966       -0.41688
C         -2.15475        0.80605       -0.09072
C         -3.10865        1.07372        1.08540
O         -4.02347        2.13850        0.84410
C         -3.65790        3.49289        1.11108
C         -4.99553        4.21872        1.41795
C         -4.77202        5.71737        1.67118
C         -4.13891        6.34884        0.42131
C         -2.80288        5.65725        0.10583
C         -3.05607        4.16049       -0.14408
C         -1.85320        5.82088        1.30533
C         -2.47909        5.20204        2.56747
C         -3.81955        5.89125        2.86414
C         -2.72439        3.70409        2.32468
H         -0.67212        2.34232        0.37139
H         -0.38412        0.80549        1.16542
H          0.00722        1.41678       -1.81310
H          1.26418        1.17436       -0.60161
H          0.89057       -0.79169       -1.87691
H         -1.07122       -2.11095       -1.65208
H         -1.40250       -0.57870       -2.45742
H         -1.88432       -1.27228        0.48962
H         -3.11560       -1.02894       -0.74812
H         -2.50886        1.33989       -0.98178
H         -3.75400        0.19744        1.22088
H         -2.58872        1.18734        2.04100
H         -5.69893        4.07716        0.58625
H         -5.47730        3.75544        2.28949
H         -5.72923        6.20430        1.88791
H         -3.97744        7.42167        0.58331
H         -4.82068        6.25459       -0.43276
H         -2.35453        6.10993       -0.78560
H         -2.11985        3.67932       -0.43508
H         -3.72946        4.02519       -1.00071
H         -0.89120        5.33980        1.08947
H         -1.64623        6.88462        1.47536
H         -1.80081        5.33160        3.41827
H         -3.65708        6.95758        3.06321
H         -4.26905        5.46309        3.76857
H         -3.15726        3.23845        3.21945
H         -1.75864        3.21333        2.16689

--Link1--
%chk=JID_8162.chk
%mem=8GB
%nprocshared=4
# B3LYP/6-311++G(d,p) empiricaldispersion=gd3bj scf=xqc pop=npa geom=check

CID_84084220_JID_8162_Energie_neutraal

0 1

--Link1--
%chk=JID_8162.chk
%mem=8GB
%nprocshared=4
# B3LYP/6-311++G(d,p) empiricaldispersion=gd3bj scf=xqc pop=npa geom=check

CID_84084220_JID_8162_Energie_kation

1 2

--Link1--
%chk=JID_8162.chk
%mem=8GB
%nprocshared=4
# B3LYP/6-311++G(d,p) empiricaldispersion=gd3bj scf=xqc pop=npa geom=check

CID_84084220_JID_8162_Energie_anion

-1 2
