%chk=JID_10790.chk
%mem=8GB
%nprocshared=4
# opt freq B3LYP/6-31G(d) empiricaldispersion=gd3bj scf=xqc

CID_151064799_JID_10790_neutraal

0 1
C          0.93119       -0.03630        0.06283
S          0.32977        0.09839       -1.60509
O         -0.80160       -0.79718       -1.73346
O          0.21606        1.49566       -1.95714
N          1.56812       -0.63609       -2.49168
C          2.57219        0.21424       -3.06122
C          2.25731        0.92326       -4.22758
C          3.19038        1.78422       -4.80154
C          4.44219        1.93759       -4.21535
C          4.76177        1.22859       -3.05466
C          3.83773        0.35240       -2.45201
C          4.23951       -0.39728       -1.24651
C          4.65731        0.27640       -0.08513
C          5.03322       -0.42373        1.06806
C          5.03192       -1.82018        1.05095
C          4.63224       -2.50892       -0.09253
C          4.23788       -1.80148       -1.22977
N          5.44221        0.26894        2.21596
N          4.48383        0.52995        2.96954
N          3.60812        0.77078        3.65973
H          0.12121        0.25877        0.73391
H          1.77429        0.64141        0.19356
H          1.21249       -1.07192        0.26077
H          1.14914       -1.29618       -3.14922
H          1.27393        0.82960       -4.68176
H          2.93545        2.34165       -5.69938
H          5.17285        2.60908       -4.65998
H          5.75437        1.35464       -2.62461
H          4.67970        1.36473       -0.06988
H          5.34851       -2.37473        1.93086
H          4.63433       -3.59611       -0.10242
H          3.93742       -2.35673       -2.11682

--Link1--
%chk=JID_10790.chk
%mem=8GB
%nprocshared=4
# B3LYP/6-311++G(d,p) empiricaldispersion=gd3bj scf=xqc pop=npa geom=check

CID_151064799_JID_10790_Energie_neutraal

0 1

--Link1--
%chk=JID_10790.chk
%mem=8GB
%nprocshared=4
# B3LYP/6-311++G(d,p) empiricaldispersion=gd3bj scf=xqc pop=npa geom=check

CID_151064799_JID_10790_Energie_kation

1 2

--Link1--
%chk=JID_10790.chk
%mem=8GB
%nprocshared=4
# B3LYP/6-311++G(d,p) empiricaldispersion=gd3bj scf=xqc pop=npa geom=check

CID_151064799_JID_10790_Energie_anion

-1 2
