%chk=JID_10682.chk
%mem=8GB
%nprocshared=4
# opt freq B3LYP/6-31G(d) empiricaldispersion=gd3bj scf=xqc

CID_102334585_JID_10682_neutraal

0 1
C          2.49200        0.00400       -0.01400
C          0.99894       -0.07732       -0.12884
C          0.37247       -1.30268       -0.37806
C         -1.01721       -1.37465       -0.51949
C         -1.80600       -0.22279       -0.41373
C         -1.17231        1.00649       -0.19515
C          0.21689        1.07941       -0.05352
C         -3.26557       -0.24575       -0.59308
C         -4.05295       -1.24851       -0.17318
C         -5.53992       -1.30257       -0.32535
N         -6.17590       -2.28677        0.24752
O         -7.55466       -2.23062        0.01042
C         -6.19152       -0.23634       -1.11934
C         -6.87018        0.79102       -0.46380
C         -7.46282        1.80580       -1.21665
C         -7.38516        1.79703       -2.61435
C         -6.71107        0.75697       -3.26067
C         -6.11414       -0.26383       -2.51405
O         -8.00524        2.85295       -3.22423
C         -7.96898        2.88772       -4.64532
H          2.89956       -0.91172        0.42711
H          2.93620        0.14893       -1.00355
H          2.78985        0.83595        0.63282
H          0.96218       -2.21225       -0.46875
H         -1.46913       -2.34148       -0.72695
H         -1.75477        1.92276       -0.12687
H          0.68267        2.04764        0.11589
H         -3.67990        0.63488       -1.07638
H         -3.64036       -2.10571        0.35193
H         -7.88031       -3.01467        0.48917
H         -6.94197        0.79909        0.62013
H         -7.99427        2.60941       -0.71239
H         -6.63414        0.70916       -4.34169
H         -5.59610       -1.07510       -3.01856
H         -6.94011        2.96608       -5.01188
H         -8.47747        2.01824       -5.07485
H         -8.50729        3.78282       -4.97160

--Link1--
%chk=JID_10682.chk
%mem=8GB
%nprocshared=4
# B3LYP/6-311++G(d,p) empiricaldispersion=gd3bj scf=xqc pop=npa geom=check

CID_102334585_JID_10682_Energie_neutraal

0 1

--Link1--
%chk=JID_10682.chk
%mem=8GB
%nprocshared=4
# B3LYP/6-311++G(d,p) empiricaldispersion=gd3bj scf=xqc pop=npa geom=check

CID_102334585_JID_10682_Energie_kation

1 2

--Link1--
%chk=JID_10682.chk
%mem=8GB
%nprocshared=4
# B3LYP/6-311++G(d,p) empiricaldispersion=gd3bj scf=xqc pop=npa geom=check

CID_102334585_JID_10682_Energie_anion

-1 2
