%chk=JID_2034.chk
%mem=8GB
%nprocshared=4
# opt freq B3LYP/6-31G(d) empiricaldispersion=gd3bj scf=xqc

CID_114356543_JID_2034_neutraal

0 1
C          1.04587       -0.06442       -0.06120
C          0.74869        1.11923       -0.97235
N          1.40469        1.07244       -2.28878
C          0.75768        2.03627       -3.18829
C          2.89268        1.25913       -2.31336
C          3.43973        2.42352       -1.43879
O          3.41187        2.14124       -0.04154
C          3.69340       -0.06972       -2.07517
C          3.17172       -1.22823       -2.95994
O          3.47639       -0.96332       -4.33893
C          2.86832       -1.92170       -5.19423
N          5.14261        0.12383       -2.37070
H          0.92801       -1.01506       -0.59092
H          0.34243       -0.06787        0.77881
H          2.04846       -0.01977        0.36675
H         -0.33754        1.08720       -1.13546
H          0.93403        2.06429       -0.45015
H          0.88129        3.07029       -2.84937
H          1.15737        1.95183       -4.20522
H         -0.31540        1.82860       -3.27091
H          3.13996        1.54490       -3.34719
H          4.47745        2.64071       -1.71588
H          2.86775        3.34110       -1.61109
H          3.98097        2.80301        0.38584
H          3.61592       -0.37060       -1.02789
H          3.67198       -2.16169       -2.67277
H          2.09395       -1.37327       -2.83112
H          3.21374       -2.93037       -4.94824
H          1.77825       -1.86585       -5.11587
H          3.15509       -1.69456       -6.22441
H          5.63135       -0.73880       -2.13209
H          5.21293        0.17402       -3.39349

--Link1--
%chk=JID_2034.chk
%mem=8GB
%nprocshared=4
# B3LYP/6-311++G(d,p) empiricaldispersion=gd3bj scf=xqc pop=npa geom=check

CID_114356543_JID_2034_Energie_neutraal

0 1

--Link1--
%chk=JID_2034.chk
%mem=8GB
%nprocshared=4
# B3LYP/6-311++G(d,p) empiricaldispersion=gd3bj scf=xqc pop=npa geom=check

CID_114356543_JID_2034_Energie_kation

1 2

--Link1--
%chk=JID_2034.chk
%mem=8GB
%nprocshared=4
# B3LYP/6-311++G(d,p) empiricaldispersion=gd3bj scf=xqc pop=npa geom=check

CID_114356543_JID_2034_Energie_anion

-1 2
