%chk=JID_7987.chk
%mem=8GB
%nprocshared=4
# opt freq B3LYP/6-31G(d) empiricaldispersion=gd3bj scf=xqc

CID_141763284_JID_7987_neutraal

0 1
C          1.34400       -0.22500        0.03600
C          0.61475        0.52125       -0.88871
C         -0.76416        0.66470       -0.73516
C         -1.41407        0.03849        0.33607
C         -0.67783       -0.66921        1.28792
C          0.70082       -0.81274        1.12627
S         -3.16313        0.27309        0.55062
O         -3.44395        0.23905        1.97481
O         -3.49046        1.48630       -0.18515
C         -4.03704       -1.02832       -0.24755
C         -3.71698       -1.20564       -1.72612
C         -2.41399       -1.90643       -1.97878
O         -1.92685       -2.80082       -1.31283
O         -1.80131       -1.46196       -3.08920
C         -4.06607       -2.32436        0.48914
O         -4.89751       -3.19846        0.27523
O         -3.08399       -2.56091        1.36290
H          2.42003       -0.33224       -0.07951
H          1.12298        1.00330       -1.72043
H         -1.31670        1.27016       -1.45108
H         -1.16156       -1.10696        2.15799
H          1.27636       -1.37420        1.85850
H         -5.07523       -0.66561       -0.19102
H         -4.49316       -1.80932       -2.21185
H         -3.70064       -0.23078       -2.22665
H         -0.97546       -1.98997       -3.14545
H         -3.23710       -3.48097        1.67039

--Link1--
%chk=JID_7987.chk
%mem=8GB
%nprocshared=4
# B3LYP/6-311++G(d,p) empiricaldispersion=gd3bj scf=xqc pop=npa geom=check

CID_141763284_JID_7987_Energie_neutraal

0 1

--Link1--
%chk=JID_7987.chk
%mem=8GB
%nprocshared=4
# B3LYP/6-311++G(d,p) empiricaldispersion=gd3bj scf=xqc pop=npa geom=check

CID_141763284_JID_7987_Energie_kation

1 2

--Link1--
%chk=JID_7987.chk
%mem=8GB
%nprocshared=4
# B3LYP/6-311++G(d,p) empiricaldispersion=gd3bj scf=xqc pop=npa geom=check

CID_141763284_JID_7987_Energie_anion

-1 2
