%chk=JID_8118.chk
%mem=8GB
%nprocshared=4
# opt freq B3LYP/6-31G(d) empiricaldispersion=gd3bj scf=xqc

CID_65790694_JID_8118_neutraal

0 1
C          0.95377        0.06081       -0.06453
C          0.67833       -1.41431       -0.34122
C          1.42851       -2.39312        0.58968
O          1.17412       -2.19089        1.97412
C          2.21307       -1.52012        2.66729
N         -0.81174       -1.67124       -0.45343
C         -1.11876       -2.71569       -1.45825
S         -1.69230       -1.79150        1.00561
O         -1.62297       -3.15520        1.47619
O         -1.35132       -0.66774        1.84776
N         -3.26244       -1.50699        0.47398
C         -3.55984       -0.20668       -0.14927
C         -5.01849        0.15948        0.12357
C         -5.98081       -0.95160       -0.33541
C         -5.56147       -2.29362        0.29089
C         -4.09869       -2.61622       -0.00621
C         -7.44565       -0.65066        0.02089
N         -7.94410        0.54044       -0.65883
H          0.63563        0.37671        0.93068
H          0.43016        0.69245       -0.79069
H          2.02524        0.27133       -0.15048
H          1.09961       -1.58698       -1.34152
H          1.11871       -3.41788        0.35578
H          2.50617       -2.34022        0.38888
H          3.13441       -2.10922        2.63491
H          2.39106       -0.52620        2.25049
H          1.91048       -1.40839        3.71207
H         -1.23978       -3.70100       -1.00090
H         -2.02475       -2.44245       -2.00313
H         -0.33015       -2.80437       -2.21162
H         -3.37684       -0.26299       -1.22835
H         -2.92135        0.58418        0.25689
H         -5.24444        1.10130       -0.38850
H         -5.15162        0.33698        1.19883
H         -5.90035       -1.04731       -1.42746
H         -5.71218       -2.25735        1.37791
H         -6.19489       -3.10160       -0.09427
H         -3.84613       -3.55467        0.49535
H         -3.96819       -2.76179       -1.08208
H         -8.07348       -1.49907       -0.27482
H         -7.56116       -0.52478        1.10368
H         -8.93366        0.65834       -0.44086
H         -7.48223        1.36841       -0.28432

--Link1--
%chk=JID_8118.chk
%mem=8GB
%nprocshared=4
# B3LYP/6-311++G(d,p) empiricaldispersion=gd3bj scf=xqc pop=npa geom=check

CID_65790694_JID_8118_Energie_neutraal

0 1

--Link1--
%chk=JID_8118.chk
%mem=8GB
%nprocshared=4
# B3LYP/6-311++G(d,p) empiricaldispersion=gd3bj scf=xqc pop=npa geom=check

CID_65790694_JID_8118_Energie_kation

1 2

--Link1--
%chk=JID_8118.chk
%mem=8GB
%nprocshared=4
# B3LYP/6-311++G(d,p) empiricaldispersion=gd3bj scf=xqc pop=npa geom=check

CID_65790694_JID_8118_Energie_anion

-1 2
