%chk=JID_2146.chk
%mem=8GB
%nprocshared=4
# opt freq B3LYP/6-31G(d) empiricaldispersion=gd3bj scf=xqc

CID_131995366_JID_2146_neutraal

0 1
C          0.92092        0.04768       -0.03839
C         -0.14392       -0.16219        1.03961
N         -0.08255        0.83617        2.08825
N         -1.51729       -0.20542        0.55575
C         -2.32132       -1.36965        0.97260
C         -2.70467       -1.35899        2.46485
N         -3.43290       -0.13200        2.82146
N         -3.66618       -0.11887        4.25275
C         -4.39022        1.10854        4.59142
C         -2.01550        0.82159       -0.24849
O         -1.34468        1.77383       -0.64750
C         -3.46304        0.73570       -0.67130
H          0.92229        1.06243       -0.44644
H          0.77195       -0.64999       -0.86947
H          1.92050       -0.12860        0.37527
H          0.08181       -1.13486        1.49434
H         -0.61488        0.52519        2.89554
H          0.87942        0.95661        2.39377
H         -3.23055       -1.45150        0.37211
H         -1.73577       -2.27045        0.75151
H         -3.32907       -2.23699        2.67007
H         -1.79767       -1.45175        3.07458
H         -2.85255        0.66797        2.52950
H         -4.25805       -0.90870        4.53060
H         -5.35422        1.16142        4.07330
H         -4.58563        1.12791        5.66822
H         -3.80129        1.99866        4.34597
H         -3.60427       -0.10054       -1.36062
H         -4.12079        0.64310        0.19510
H         -3.73906        1.65689       -1.19487

--Link1--
%chk=JID_2146.chk
%mem=8GB
%nprocshared=4
# B3LYP/6-311++G(d,p) empiricaldispersion=gd3bj scf=xqc pop=npa geom=check

CID_131995366_JID_2146_Energie_neutraal

0 1

--Link1--
%chk=JID_2146.chk
%mem=8GB
%nprocshared=4
# B3LYP/6-311++G(d,p) empiricaldispersion=gd3bj scf=xqc pop=npa geom=check

CID_131995366_JID_2146_Energie_kation

1 2

--Link1--
%chk=JID_2146.chk
%mem=8GB
%nprocshared=4
# B3LYP/6-311++G(d,p) empiricaldispersion=gd3bj scf=xqc pop=npa geom=check

CID_131995366_JID_2146_Energie_anion

-1 2
