%chk=JID_8721.chk
%mem=8GB
%nprocshared=4
# opt freq B3LYP/6-31G(d) empiricaldispersion=gd3bj scf=xqc

CID_84100905_JID_8721_neutraal

0 1
C          0.94785        0.05602       -0.06435
C          0.36248        1.36042       -0.58963
N          0.83188        1.58868       -1.95270
C          0.41420        2.85061       -2.58536
C         -1.12018        3.05202       -2.58281
C         -1.49527        4.33639       -3.34037
C         -1.01151        4.23327       -4.79219
C          0.51155        4.05591       -4.81978
C          0.89030        2.77734       -4.05951
C          1.17755        5.26409       -4.14518
C          0.71908        5.40402       -2.66736
C         -0.82659        5.54590       -2.66100
C          1.08287        4.08363       -1.92551
C          1.46124        6.59985       -2.00220
C          1.20367        7.98146       -2.61172
C          1.82152        8.94013       -1.60081
C          1.67706        8.25888       -0.24227
C          1.15338        6.85049       -0.52103
H          0.65090       -0.79224       -0.69050
H          0.58988       -0.13460        0.95260
H          2.04207        0.09492       -0.03393
H         -0.72841        1.27771       -0.56119
H          0.66653        2.16980        0.08086
H          1.84934        1.51862       -1.97833
H         -1.61951        2.19116       -3.04637
H         -1.50417        3.12919       -1.55815
H         -2.58367        4.46470       -3.32547
H         -1.29541        5.13527       -5.34810
H         -1.49791        3.38615       -5.29123
H          0.85371        3.98075       -5.85821
H          1.97911        2.63828       -4.10607
H          0.44226        1.90942       -4.56243
H          2.26872        5.15447       -4.19314
H          0.92680        6.16878       -4.71248
H         -1.13442        6.45675       -3.18705
H         -1.20567        5.62785       -1.63612
H          0.76485        4.15998       -0.87906
H          2.17409        3.95607       -1.91417
H          2.54167        6.40299       -2.08074
H          1.65876        8.10099       -3.59920
H          0.13293        8.19211       -2.70032
H          1.33848        9.92188       -1.62301
H          2.88396        9.09036       -1.82651
H          0.98902        8.80658        0.41036
H          2.64758        8.22049        0.26496
H          0.07719        6.82587       -0.32227
H          1.63078        6.11560        0.13454

--Link1--
%chk=JID_8721.chk
%mem=8GB
%nprocshared=4
# B3LYP/6-311++G(d,p) empiricaldispersion=gd3bj scf=xqc pop=npa geom=check

CID_84100905_JID_8721_Energie_neutraal

0 1

--Link1--
%chk=JID_8721.chk
%mem=8GB
%nprocshared=4
# B3LYP/6-311++G(d,p) empiricaldispersion=gd3bj scf=xqc pop=npa geom=check

CID_84100905_JID_8721_Energie_kation

1 2

--Link1--
%chk=JID_8721.chk
%mem=8GB
%nprocshared=4
# B3LYP/6-311++G(d,p) empiricaldispersion=gd3bj scf=xqc pop=npa geom=check

CID_84100905_JID_8721_Energie_anion

-1 2
