%chk=JID_5298.chk
%mem=8GB
%nprocshared=4
# opt freq B3LYP/6-31G(d) empiricaldispersion=gd3bj scf=xqc

CID_21997662_JID_5298_neutraal

0 1
C          1.34400       -0.22500        0.03600
C          0.92885        0.94929       -0.58654
C         -0.42952        1.24905       -0.68389
C         -1.38847        0.37274       -0.15604
C         -0.95943       -0.80806        0.46947
C          0.40217       -1.10478        0.56314
C         -2.85665        0.70969       -0.24007
C         -3.45007        1.21638        1.08416
N         -2.90779        2.53493        1.45644
N         -3.49208        2.94817        2.71523
O          4.15007        2.09807       -2.01711
S          5.02095        1.43876       -1.02707
O          4.85564       -0.02292       -1.12323
O          6.42610        1.79502       -1.29106
O          4.64430        1.88350        0.32655
H          2.41513       -0.43144        0.09520
H          1.68950        1.62116       -0.99148
H         -0.71967        2.17524       -1.17238
H         -1.67961       -1.50369        0.88884
H          0.74241       -2.01604        1.04436
H         -3.02933        1.44770       -1.03430
H         -3.39978       -0.19156       -0.55302
H         -4.53733        1.29699        0.96052
H         -3.25909        0.48839        1.88298
H         -1.88305        2.42857        1.52865
H         -2.95996        3.73471        3.10044
H         -4.43172        3.31914        2.55644

--Link1--
%chk=JID_5298.chk
%mem=8GB
%nprocshared=4
# B3LYP/6-311++G(d,p) empiricaldispersion=gd3bj scf=xqc pop=npa geom=check

CID_21997662_JID_5298_Energie_neutraal

0 1

--Link1--
%chk=JID_5298.chk
%mem=8GB
%nprocshared=4
# B3LYP/6-311++G(d,p) empiricaldispersion=gd3bj scf=xqc pop=npa geom=check

CID_21997662_JID_5298_Energie_kation

1 2

--Link1--
%chk=JID_5298.chk
%mem=8GB
%nprocshared=4
# B3LYP/6-311++G(d,p) empiricaldispersion=gd3bj scf=xqc pop=npa geom=check

CID_21997662_JID_5298_Energie_anion

-1 2
