%chk=JID_9900.chk
%mem=8GB
%nprocshared=4
# opt freq B3LYP/6-31G(d) empiricaldispersion=gd3bj scf=xqc

CID_114537145_JID_9900_neutraal

0 1
C          0.97689        0.09484       -0.02172
C          0.17924       -0.94414        0.75767
C          0.31522       -0.80410        2.28902
C         -0.17046        0.56127        2.82262
C         -1.60276        0.90279        2.43366
N         -2.56365        0.14011        2.87016
O         -3.81112        0.62304        2.44055
N         -1.81643        2.01334        1.65776
N         -0.40529       -1.93764        2.90471
C          0.01617       -2.21604        4.28221
C         -1.13274       -2.12789        5.29147
C         -2.23774       -3.16410        5.08789
N         -1.82748       -4.51898        5.41080
C         -1.64206       -5.57987        4.56072
C         -1.29957       -6.64324        5.36922
C         -1.31338       -6.13546        6.68530
N         -1.64004       -4.83958        6.70792
C         -1.02439       -6.85369        7.94820
C         -1.79444       -5.50474        3.08789
H          0.58414        1.10393        0.12904
H          0.92589       -0.12171       -1.09372
H          2.03028        0.08422        0.27531
H         -0.87271       -0.89207        0.45118
H          0.53894       -1.93737        0.45717
H          1.38412       -0.90235        2.52206
H         -0.11116        0.58972        3.91734
H          0.49647        1.35413        2.46469
H         -4.42545       -0.05312        2.78195
H         -1.19514        2.79920        1.80100
H         -2.80130        2.26683        1.65295
H         -1.40334       -1.70400        2.87420
H          0.45860       -3.21792        4.30835
H          0.80706       -1.53038        4.61022
H         -0.71406       -2.22738        6.30088
H         -1.57712       -1.12648        5.24460
H         -3.07925       -2.93436        5.75329
H         -2.63130       -3.14642        4.06808
H         -1.07357       -7.65134        5.05147
H         -0.16074       -6.40938        8.45330
H         -1.88421       -6.80495        8.62424
H         -0.80145       -7.90882        7.76045
H         -2.80315       -5.17897        2.81542
H         -1.06987       -4.80903        2.65588
H         -1.62810       -6.48549        2.63009

--Link1--
%chk=JID_9900.chk
%mem=8GB
%nprocshared=4
# B3LYP/6-311++G(d,p) empiricaldispersion=gd3bj scf=xqc pop=npa geom=check

CID_114537145_JID_9900_Energie_neutraal

0 1

--Link1--
%chk=JID_9900.chk
%mem=8GB
%nprocshared=4
# B3LYP/6-311++G(d,p) empiricaldispersion=gd3bj scf=xqc pop=npa geom=check

CID_114537145_JID_9900_Energie_kation

1 2

--Link1--
%chk=JID_9900.chk
%mem=8GB
%nprocshared=4
# B3LYP/6-311++G(d,p) empiricaldispersion=gd3bj scf=xqc pop=npa geom=check

CID_114537145_JID_9900_Energie_anion

-1 2
