%chk=JID_8534.chk
%mem=8GB
%nprocshared=4
# opt freq B3LYP/6-31G(d) empiricaldispersion=gd3bj scf=xqc

CID_65420099_JID_8534_neutraal

0 1
C          1.04787       -0.05436        0.06895
C          0.26867        0.01387       -1.24862
C          0.46894       -1.29011       -2.02820
C         -1.23986        0.34536       -1.07631
C         -1.44473        1.81980       -0.70477
C         -2.92859        2.17776       -0.56251
C         -3.70584        1.29800        0.46378
C         -3.44056       -0.19250        0.08704
C         -1.95883       -0.55550       -0.06497
C         -3.13989        1.56644        1.81986
N         -2.67810        1.77350        2.86591
N         -5.18503        1.53420        0.35843
C         -5.64719        2.93377        0.26498
C         -5.76860        3.67810        1.61129
N         -6.67500        2.97719        2.53406
C         -6.26418        1.57316        2.70247
C         -6.03263        0.83632        1.35599
C         -6.72827        3.65976        3.82555
H          0.74716       -0.91365        0.67675
H          0.91798        0.85296        0.66513
H          2.12008       -0.15997       -0.13167
H          0.71722        0.81345       -1.85384
H          0.09366       -2.15709       -1.47604
H         -0.04623       -1.24958       -2.99368
H          1.53282       -1.45790       -2.22917
H         -1.72089        0.19671       -2.05396
H         -1.00550        2.45836       -1.48143
H         -0.92117        2.06312        0.22614
H         -3.39745        2.08957       -1.55235
H         -2.97129        3.23694       -0.27809
H         -3.85658       -0.87279        0.83935
H         -3.94680       -0.42484       -0.86045
H         -1.88973       -1.60284       -0.38017
H         -1.47959       -0.49330        0.91829
H         -6.64520        2.91207       -0.19669
H         -5.05355        3.52690       -0.43583
H         -6.16909        4.67902        1.40854
H         -4.77522        3.81475        2.05429
H         -5.36152        1.50666        3.31822
H         -7.05117        1.03671        3.24716
H         -7.01645        0.69527        0.88673
H         -5.68070       -0.17848        1.56211
H         -7.43306        3.15758        4.49728
H         -5.74912        3.69517        4.31710
H         -7.08779        4.68724        3.70154

--Link1--
%chk=JID_8534.chk
%mem=8GB
%nprocshared=4
# B3LYP/6-311++G(d,p) empiricaldispersion=gd3bj scf=xqc pop=npa geom=check

CID_65420099_JID_8534_Energie_neutraal

0 1

--Link1--
%chk=JID_8534.chk
%mem=8GB
%nprocshared=4
# B3LYP/6-311++G(d,p) empiricaldispersion=gd3bj scf=xqc pop=npa geom=check

CID_65420099_JID_8534_Energie_kation

1 2

--Link1--
%chk=JID_8534.chk
%mem=8GB
%nprocshared=4
# B3LYP/6-311++G(d,p) empiricaldispersion=gd3bj scf=xqc pop=npa geom=check

CID_65420099_JID_8534_Energie_anion

-1 2
