%chk=JID_7007.chk
%mem=8GB
%nprocshared=4
# opt freq B3LYP/6-31G(d) empiricaldispersion=gd3bj scf=xqc

CID_113835829_JID_7007_neutraal

0 1
C          0.99892        0.09742       -0.02256
C          1.00979        1.44486        0.68746
N          0.56208        2.48038       -0.23003
C          0.59328        3.87574        0.24793
C          2.05238        4.30622        0.53085
C          0.06202        4.79785       -0.89748
C         -1.25381        4.37602       -1.55558
O         -0.98862        3.55681       -2.70311
C         -1.92733        2.47930       -2.79789
C         -1.86305        1.81644       -4.17407
O         -0.70203        1.00217       -4.35360
C          0.47499        1.74652       -4.66825
C          1.11665        1.14552       -5.92683
C          0.18374        1.27439       -7.13471
C          2.45607        1.81635       -6.22119
C         -0.21907        4.10660        1.56309
O         -1.60064        3.79143        1.43960
H         -0.00139       -0.14634       -0.39663
H          1.30257       -0.69530        0.66878
H          1.69342        0.09003       -0.86966
H          0.34379        1.38226        1.55384
H          2.02608        1.63244        1.04611
H          1.02831        2.40508       -1.13426
H          2.70371        4.10514       -0.32762
H          2.10807        5.38110        0.74055
H          2.47248        3.78898        1.40021
H         -0.07294        5.80569       -0.48262
H          0.82884        4.88148       -1.68008
H         -1.93701        3.88600       -0.85952
H         -1.76196        5.27020       -1.93428
H         -1.70116        1.74880       -2.01395
H         -2.94053        2.87222       -2.65232
H         -2.72075        1.14241       -4.27040
H         -1.93203        2.55496       -4.98116
H          0.26697        2.81128       -4.82675
H          1.15772        1.65798       -3.81598
H          1.28795        0.07488       -5.75712
H         -0.05951        2.32325       -7.33686
H          0.64945        0.85570       -8.03304
H         -0.75511        0.73580       -6.96923
H          3.14768        1.68846       -5.38212
H          2.92339        1.37761       -7.10933
H          2.33273        2.88996       -6.39986
H          0.19387        3.51085        2.38491
H         -0.15306        5.15850        1.86467
H         -1.96690        3.74914        2.33863

--Link1--
%chk=JID_7007.chk
%mem=8GB
%nprocshared=4
# B3LYP/6-311++G(d,p) empiricaldispersion=gd3bj scf=xqc pop=npa geom=check

CID_113835829_JID_7007_Energie_neutraal

0 1

--Link1--
%chk=JID_7007.chk
%mem=8GB
%nprocshared=4
# B3LYP/6-311++G(d,p) empiricaldispersion=gd3bj scf=xqc pop=npa geom=check

CID_113835829_JID_7007_Energie_kation

1 2

--Link1--
%chk=JID_7007.chk
%mem=8GB
%nprocshared=4
# B3LYP/6-311++G(d,p) empiricaldispersion=gd3bj scf=xqc pop=npa geom=check

CID_113835829_JID_7007_Energie_anion

-1 2
