%chk=JID_8807.chk
%mem=8GB
%nprocshared=4
# opt freq B3LYP/6-31G(d) empiricaldispersion=gd3bj scf=xqc

CID_83029242_JID_8807_neutraal

0 1
C         -2.13800        0.04600       -0.83400
C         -0.83922        0.28388       -0.04993
C         -0.20115        1.60027       -0.52362
C          1.23291        1.75939       -0.01005
C          2.04914        0.51557       -0.35709
C          1.34593       -0.73202        0.14871
O          0.01888       -0.82286       -0.36410
N          1.82685        2.94299       -0.62251
C          2.83970        3.58575        0.00326
N          3.19962        3.43277        1.25662
C          4.27818        4.27269        1.53252
N          4.76626        5.04229        0.55528
S          3.84087        4.74272       -0.79751
C          4.86278        4.28880        2.93263
C          6.05861        5.25510        3.06090
C          3.78054        4.72946        3.93809
C          5.34741        2.87438        3.30770
C         -1.18118        0.30229        1.44738
H         -1.93721       -0.03279       -1.90882
H         -2.60373       -0.90165       -0.53925
H         -2.86121        0.85265       -0.67471
H         -0.17634        1.61208       -1.62279
H         -0.81188        2.45989       -0.21938
H          1.19537        1.88088        1.07980
H          2.16365        0.44732       -1.44699
H          3.05735        0.57683        0.06815
H          1.88828       -1.62026       -0.19197
H          1.33173       -0.77138        1.24271
H          1.80890        2.97458       -1.63633
H          5.76757        6.28639        2.82855
H          6.46476        5.24991        4.07910
H          6.87255        4.97799        2.38054
H          2.92310        4.04625        3.93165
H          4.17415        4.75575        4.96059
H          3.40236        5.73030        3.69817
H          4.52580        2.14871        3.28815
H          6.11280        2.52028        2.60702
H          5.77990        2.85602        4.31458
H         -1.58569       -0.66680        1.76165
H         -0.30493        0.48558        2.07557
H         -1.92062        1.07705        1.67677

--Link1--
%chk=JID_8807.chk
%mem=8GB
%nprocshared=4
# B3LYP/6-311++G(d,p) empiricaldispersion=gd3bj scf=xqc pop=npa geom=check

CID_83029242_JID_8807_Energie_neutraal

0 1

--Link1--
%chk=JID_8807.chk
%mem=8GB
%nprocshared=4
# B3LYP/6-311++G(d,p) empiricaldispersion=gd3bj scf=xqc pop=npa geom=check

CID_83029242_JID_8807_Energie_kation

1 2

--Link1--
%chk=JID_8807.chk
%mem=8GB
%nprocshared=4
# B3LYP/6-311++G(d,p) empiricaldispersion=gd3bj scf=xqc pop=npa geom=check

CID_83029242_JID_8807_Energie_anion

-1 2
