%chk=JID_9777.chk
%mem=8GB
%nprocshared=4
# opt freq B3LYP/6-31G(d) empiricaldispersion=gd3bj scf=xqc

CID_117182255_JID_9777_neutraal

0 1
C          0.97006        0.05078        0.08078
C          0.43610       -1.35352        0.39000
C          0.95095       -1.84996        1.74069
N         -1.02405       -1.44467        0.32173
C         -1.84738       -0.51462        0.91415
C         -3.15676       -0.80128        0.60099
C         -3.12962       -2.02343       -0.14341
C         -4.16323       -2.81145       -0.69390
C         -3.86326       -3.98073       -1.38027
C         -2.54354       -4.38561       -1.50640
C         -1.46314       -3.65054       -0.95824
C         -1.78893       -2.43420       -0.28962
C         -0.08280       -4.23773       -1.15016
N          0.59191       -3.65172       -2.30252
C         -4.34989       -0.01516        1.02954
S         -5.37692        0.62761       -0.33125
C         -4.30630        1.89042       -1.12769
C         -3.62321        2.83238       -0.14365
C         -3.31816        1.27218       -2.11121
H          0.71827        0.77089        0.86621
H          0.56165        0.42506       -0.86448
H          2.06181        0.03223       -0.00824
H          0.83884       -1.98840       -0.39417
H          0.60831       -1.20877        2.56048
H          0.59912       -2.86635        1.94797
H          2.04580       -1.86222        1.75750
H         -1.43793        0.30227        1.49344
H         -5.20000       -2.50298       -0.59024
H         -4.66336       -4.57641       -1.81038
H         -2.34373       -5.31171       -2.04419
H          0.51593       -4.11178       -0.24381
H         -0.15871       -5.32223       -1.29751
H          1.40522       -4.21658       -2.53631
H         -0.03377       -3.70028       -3.10609
H         -4.99453       -0.67103        1.62677
H         -4.06905        0.80853        1.69360
H         -5.00372        2.49523       -1.72004
H         -2.82997        2.33774        0.42375
H         -3.15635        3.66434       -0.68327
H         -4.34138        3.26437        0.56136
H         -3.81566        0.58392       -2.80313
H         -2.85210        2.05834       -2.71640
H         -2.50730        0.73758       -1.61269

--Link1--
%chk=JID_9777.chk
%mem=8GB
%nprocshared=4
# B3LYP/6-311++G(d,p) empiricaldispersion=gd3bj scf=xqc pop=npa geom=check

CID_117182255_JID_9777_Energie_neutraal

0 1

--Link1--
%chk=JID_9777.chk
%mem=8GB
%nprocshared=4
# B3LYP/6-311++G(d,p) empiricaldispersion=gd3bj scf=xqc pop=npa geom=check

CID_117182255_JID_9777_Energie_kation

1 2

--Link1--
%chk=JID_9777.chk
%mem=8GB
%nprocshared=4
# B3LYP/6-311++G(d,p) empiricaldispersion=gd3bj scf=xqc pop=npa geom=check

CID_117182255_JID_9777_Energie_anion

-1 2
