%chk=JID_6050.chk
%mem=8GB
%nprocshared=4
# opt freq B3LYP/6-31G(d) empiricaldispersion=gd3bj scf=xqc

CID_65364374_JID_6050_neutraal

0 1
C          1.04170        0.07696       -0.04836
C          1.48354        1.28998       -0.84817
O          1.37590        1.03797       -2.24764
C          2.51302        0.38625       -2.81391
S          3.87741        1.51922       -3.19252
C          3.01133        2.57264       -4.34033
C          2.76150        3.92350       -4.10320
C          2.09598        4.68088       -5.08353
C          1.74286        4.04694       -6.27965
C          2.03976        2.69867       -6.45194
N          2.66700        1.96366       -5.50618
C          1.66665        2.00240       -7.72653
C          1.78719        6.13865       -4.89660
C          3.17253        4.53991       -2.83496
O          2.71643        4.32487       -1.72985
O          4.15837        5.43148       -3.04531
H          0.03484       -0.23375       -0.34604
H          1.03996        0.30041        1.02238
H          1.70328       -0.77696       -0.22159
H          0.81269        2.12528       -0.62199
H          2.49657        1.59831       -0.56919
H          2.87682       -0.40680       -2.15298
H          2.18660       -0.09862       -3.73934
H          1.23895        4.59554       -7.07093
H          0.58394        2.04817       -7.87947
H          2.17085        2.47351       -8.57596
H          1.96212        0.94869       -7.69593
H          2.69493        6.73698       -5.02115
H          1.05021        6.48450       -5.62959
H          1.36041        6.32376       -3.90560
H          4.38045        5.75977       -2.14893

--Link1--
%chk=JID_6050.chk
%mem=8GB
%nprocshared=4
# B3LYP/6-311++G(d,p) empiricaldispersion=gd3bj scf=xqc pop=npa geom=check

CID_65364374_JID_6050_Energie_neutraal

0 1

--Link1--
%chk=JID_6050.chk
%mem=8GB
%nprocshared=4
# B3LYP/6-311++G(d,p) empiricaldispersion=gd3bj scf=xqc pop=npa geom=check

CID_65364374_JID_6050_Energie_kation

1 2

--Link1--
%chk=JID_6050.chk
%mem=8GB
%nprocshared=4
# B3LYP/6-311++G(d,p) empiricaldispersion=gd3bj scf=xqc pop=npa geom=check

CID_65364374_JID_6050_Energie_anion

-1 2
