%chk=JID_5087.chk
%mem=8GB
%nprocshared=4
# opt freq B3LYP/6-31G(d) empiricaldispersion=gd3bj scf=xqc

CID_142240682_JID_5087_neutraal

0 1
C          1.03664        0.06998        0.06131
C          0.47837        0.61695       -1.24374
C          0.92266       -0.06247       -2.58728
C          1.87130       -1.29218       -2.42673
C          1.18993       -2.57592       -2.01741
C          1.57788       -3.39743       -1.01985
C          2.73933       -3.25244       -0.08900
N          2.28441       -3.40860        1.28534
C          0.02908       -2.94964       -2.91243
C         -1.01865       -1.82402       -3.03232
C         -0.32675       -0.48844       -3.42494
C         -1.83135       -1.70723       -1.73031
C         -2.01413       -2.19647       -4.15367
C          1.73625        1.00313       -3.41149
C          0.95358        2.21482       -3.91398
H          0.69231       -0.94537        0.25700
H          0.68955        0.68870        0.89641
H          2.12967        0.09549        0.07560
H         -0.61392        0.63670       -1.16699
H          0.76042        1.67647       -1.25481
H          2.33896       -1.50587       -3.39933
H          2.70828       -1.03195       -1.77375
H          1.01218       -4.31671       -0.86475
H          3.46769       -4.03947       -0.31158
H          3.25365       -2.29463       -0.18980
H          3.08164       -3.30287        1.90977
H          1.65119       -2.64202        1.50759
H         -0.45635       -3.87206       -2.56758
H          0.43866       -3.17908       -3.90603
H         -1.07262        0.31767       -3.42369
H         -0.00152       -0.58715       -4.47136
H         -2.53109       -0.86536       -1.77619
H         -2.42196       -2.61443       -1.55545
H         -1.20005       -1.57485       -0.85034
H         -1.50514       -2.31150       -5.11733
H         -2.52289       -3.14232       -3.93523
H         -2.78127       -1.42290       -4.27268
H          2.57833        1.35736       -2.80216
H          2.18226        0.52316       -4.29273
H          0.45857        2.75837       -3.10569
H          1.63619        2.91244       -4.41104
H          0.19620        1.92522       -4.64830

--Link1--
%chk=JID_5087.chk
%mem=8GB
%nprocshared=4
# B3LYP/6-311++G(d,p) empiricaldispersion=gd3bj scf=xqc pop=npa geom=check

CID_142240682_JID_5087_Energie_neutraal

0 1

--Link1--
%chk=JID_5087.chk
%mem=8GB
%nprocshared=4
# B3LYP/6-311++G(d,p) empiricaldispersion=gd3bj scf=xqc pop=npa geom=check

CID_142240682_JID_5087_Energie_kation

1 2

--Link1--
%chk=JID_5087.chk
%mem=8GB
%nprocshared=4
# B3LYP/6-311++G(d,p) empiricaldispersion=gd3bj scf=xqc pop=npa geom=check

CID_142240682_JID_5087_Energie_anion

-1 2
