%chk=JID_8566.chk
%mem=8GB
%nprocshared=4
# opt freq B3LYP/6-31G(d) empiricaldispersion=gd3bj scf=xqc

CID_114276081_JID_8566_neutraal

0 1
C          1.00042       -0.09055       -0.04242
C          0.09271       -0.71009       -1.09542
C          0.29109       -2.22122       -1.32354
C         -0.27626       -3.20488       -0.26125
C         -1.78034       -3.46043       -0.34480
C         -2.80608       -2.49890       -0.91207
C         -2.51412       -3.77875       -1.63462
C          0.51547       -4.53539       -0.30226
C         -0.03848       -5.75453       -0.71327
C          0.72272       -6.92184       -0.72249
C          2.05821       -6.89221       -0.32671
C          2.68404       -5.70603        0.09236
C          1.87583       -4.54643        0.09444
C          4.21280       -5.70093        0.51834
C          5.19450       -4.75137       -0.22532
C          5.96969       -4.63075        1.10233
C          4.64823       -4.97292        1.82131
O         -0.06715       -2.64880        1.04139
H          0.69158       -0.35430        0.97166
H          0.96274        1.00159       -0.11550
H          2.04083       -0.40025       -0.18159
H         -0.93969       -0.46402       -0.84505
H          0.30819       -0.20822       -2.04765
H         -0.11375       -2.48010       -2.30939
H          1.37477       -2.36700       -1.42677
H         -2.10910       -4.01186        0.53539
H         -3.75053       -2.41289       -0.38452
H         -2.52880       -1.59366       -1.43069
H         -1.98256       -3.72145       -2.57692
H         -3.27274       -4.55363       -1.60967
H         -1.07237       -5.83382       -1.03192
H          0.27408       -7.85929       -1.04190
H          2.63057       -7.81817       -0.34876
H          2.33028       -3.60740        0.41500
H          4.60991       -6.73010        0.51613
H          5.74924       -5.19993       -1.05400
H          4.75490       -3.80631       -0.56417
H          6.39103       -3.64662        1.32044
H          6.75009       -5.39039        1.22768
H          4.05366       -4.09116        2.08451
H          4.74738       -5.60766        2.70614
H         -0.03029       -3.39233        1.66662

--Link1--
%chk=JID_8566.chk
%mem=8GB
%nprocshared=4
# B3LYP/6-311++G(d,p) empiricaldispersion=gd3bj scf=xqc pop=npa geom=check

CID_114276081_JID_8566_Energie_neutraal

0 1

--Link1--
%chk=JID_8566.chk
%mem=8GB
%nprocshared=4
# B3LYP/6-311++G(d,p) empiricaldispersion=gd3bj scf=xqc pop=npa geom=check

CID_114276081_JID_8566_Energie_kation

1 2

--Link1--
%chk=JID_8566.chk
%mem=8GB
%nprocshared=4
# B3LYP/6-311++G(d,p) empiricaldispersion=gd3bj scf=xqc pop=npa geom=check

CID_114276081_JID_8566_Energie_anion

-1 2
