%chk=JID_10377.chk
%mem=8GB
%nprocshared=4
# opt freq B3LYP/6-31G(d) empiricaldispersion=gd3bj scf=xqc

CID_80954908_JID_10377_neutraal

0 1
C          1.05358        0.08439       -0.00270
C          0.32682       -0.33653        1.26627
C          0.59901        0.59283        2.45241
C          0.06902        1.99133        2.27719
N         -1.20357        2.13272        1.87149
C         -1.67732        3.37815        1.74867
C         -0.88591        4.47411        2.03011
C          0.40196        4.24806        2.47634
N          0.89001        3.00672        2.59468
N          1.20862        5.36590        2.75698
C          2.55626        5.07641        3.26166
C          3.56154        4.70728        2.14427
N          4.21616        5.85974        1.48199
C          5.31091        5.39864        0.62801
C          3.29014        6.74026        0.75445
C          2.53112        6.12697       -0.41946
N         -2.97357        3.60145        1.26104
C         -3.79492        2.42280        0.99473
C         -4.38643        1.80490        2.26451
C         -5.39823        2.70873        2.95530
H          0.70746        1.05980       -0.35819
H          0.87357       -0.64492       -0.79894
H          2.13374        0.14246        0.16528
H         -0.74894       -0.39847        1.06371
H          0.65529       -1.34768        1.53523
H          0.13141        0.17168        3.35047
H          1.67814        0.63096        2.64554
H         -1.25557        5.48034        1.88667
H          0.70795        5.99116        3.38113
H          2.92228        5.96685        3.78858
H          2.52654        4.28462        4.02151
H          4.35385        4.13107        2.64098
H          3.11036        4.03384        1.40665
H          4.97565        4.70367       -0.14928
H          5.81181        6.24531        0.14540
H          6.07394        4.89073        1.22873
H          2.57354        7.18151        1.45566
H          3.85966        7.60053        0.37823
H          1.90801        5.28289       -0.11306
H          1.86930        6.87921       -0.86203
H          3.21060        5.78760       -1.20695
H         -3.45082        4.30337        1.81598
H         -4.61441        2.73151        0.33461
H         -3.23020        1.66900        0.43190
H         -4.89145        0.87110        1.98953
H         -3.59857        1.53916        2.97756
H         -6.20012        2.99821        2.26879
H         -5.85163        2.18483        3.80294
H         -4.92695        3.61778        3.34049

--Link1--
%chk=JID_10377.chk
%mem=8GB
%nprocshared=4
# B3LYP/6-311++G(d,p) empiricaldispersion=gd3bj scf=xqc pop=npa geom=check

CID_80954908_JID_10377_Energie_neutraal

0 1

--Link1--
%chk=JID_10377.chk
%mem=8GB
%nprocshared=4
# B3LYP/6-311++G(d,p) empiricaldispersion=gd3bj scf=xqc pop=npa geom=check

CID_80954908_JID_10377_Energie_kation

1 2

--Link1--
%chk=JID_10377.chk
%mem=8GB
%nprocshared=4
# B3LYP/6-311++G(d,p) empiricaldispersion=gd3bj scf=xqc pop=npa geom=check

CID_80954908_JID_10377_Energie_anion

-1 2
