%chk=JID_10869.chk
%mem=8GB
%nprocshared=4
# opt freq B3LYP/6-31G(d) empiricaldispersion=gd3bj scf=xqc

CID_102541545_JID_10869_neutraal

0 1
C          1.04577        0.02751       -0.08455
C          0.96827       -0.40520        1.37559
N          1.24637        0.62408        2.39065
C          2.63326        1.09935        2.29677
C          2.99225        2.07303        3.41579
C          2.05063        3.26560        3.40450
C          0.61081        2.78234        3.50872
C          0.26304        1.73112        2.42781
C         -1.21982        1.36195        2.57569
C         -1.76132        0.36505        3.41297
N         -3.09908        0.13896        3.46965
C         -3.92705        0.89673        2.72494
C         -3.49648        1.90159        1.89017
C         -2.13090        2.13238        1.81850
N         -0.94894       -0.45883        4.19314
C         -1.20161       -1.89667        4.03162
C         -2.25561       -2.44796        4.99137
C         -1.97178       -2.03345        6.42856
C         -1.83367       -0.52002        6.52231
C         -0.76088        0.00168        5.56926
H          0.32896        0.82130       -0.31349
H          0.80700       -0.82331       -0.73200
H          2.04717        0.37039       -0.35944
H         -0.01754       -0.84863        1.54144
H          1.66893       -1.23686        1.52634
H          2.81573        1.59539        1.33571
H          3.32095        0.24716        2.35867
H          4.02500        2.41705        3.28944
H          2.93894        1.56362        4.38610
H          2.28254        3.93734        4.23824
H          2.18397        3.83985        2.47959
H          0.46239        2.37210        4.51071
H         -0.05882        3.64808        3.42646
H          0.36268        2.25336        1.46484
H         -4.98216        0.66242        2.82561
H         -4.20005        2.48882        1.31294
H         -1.76985        2.92546        1.16707
H         -0.25467       -2.41981        4.21666
H         -1.47774       -2.14098        2.99752
H         -2.27756       -3.54159        4.92076
H         -3.25468       -2.10054        4.70561
H         -2.78011       -2.37649        7.08354
H         -1.04854       -2.51276        6.77627
H         -2.79743       -0.04946        6.29418
H         -1.57728       -0.23689        7.54953
H         -0.73952        1.09342        5.63576
H          0.22231       -0.34735        5.90933

--Link1--
%chk=JID_10869.chk
%mem=8GB
%nprocshared=4
# B3LYP/6-311++G(d,p) empiricaldispersion=gd3bj scf=xqc pop=npa geom=check

CID_102541545_JID_10869_Energie_neutraal

0 1

--Link1--
%chk=JID_10869.chk
%mem=8GB
%nprocshared=4
# B3LYP/6-311++G(d,p) empiricaldispersion=gd3bj scf=xqc pop=npa geom=check

CID_102541545_JID_10869_Energie_kation

1 2

--Link1--
%chk=JID_10869.chk
%mem=8GB
%nprocshared=4
# B3LYP/6-311++G(d,p) empiricaldispersion=gd3bj scf=xqc pop=npa geom=check

CID_102541545_JID_10869_Energie_anion

-1 2
