%chk=JID_10158.chk
%mem=8GB
%nprocshared=4
# opt freq B3LYP/6-31G(d) empiricaldispersion=gd3bj scf=xqc

CID_128869161_JID_10158_neutraal

0 1
C          1.06523       -0.04886        0.05795
C          0.39207        0.03386       -1.30348
C          0.68141       -1.17101       -2.20340
N          0.20103       -2.44331       -1.68848
C          1.05761       -3.59577       -1.54697
C          0.08887       -4.77320       -1.48297
C         -1.18820       -4.15071       -0.90938
C         -1.12373       -2.72696       -1.39660
O         -2.07311       -1.96527       -1.46479
C          0.63441       -5.93869       -0.65741
N         -0.32456       -7.03100       -0.54870
C         -0.45760       -8.01024       -1.48752
O         -1.58036       -8.25170       -1.92458
N          0.68057       -8.68858       -1.87496
C          0.49362       -9.67535       -2.94176
C          1.82465      -10.18952       -3.52084
N          2.80630      -10.65110       -2.51694
C          2.97660       -9.60575       -1.48796
C          1.66755       -9.08613       -0.86329
C          2.41679      -11.93280       -1.93081
H          0.68936       -0.89912        0.63543
H          0.86876        0.86166        0.63276
H          2.14935       -0.15686       -0.04765
H         -0.68629        0.15951       -1.16097
H          0.74647        0.93793       -1.81307
H          0.19496       -1.01597       -3.17323
H          1.76001       -1.25118       -2.38057
H          1.64742       -3.47215       -0.63281
H          1.72803       -3.67911       -2.40827
H         -0.12627       -5.11387       -2.50572
H         -1.19832       -4.14713        0.18537
H         -2.08354       -4.64706       -1.29321
H          1.55976       -6.29352       -1.12115
H          0.86148       -5.61895        0.36506
H         -1.24882       -6.74428       -0.24894
H         -0.09494      -10.50614       -2.53263
H         -0.10049       -9.22249       -3.74467
H          2.29214       -9.37410       -4.08835
H          1.62841      -10.98338       -4.25205
H          3.49402       -8.75927       -1.95856
H          3.64853       -9.96078       -0.69708
H          1.89406       -8.25727       -0.18816
H          1.20196       -9.86423       -0.24544
H          1.45878      -11.89730       -1.40258
H          2.34672      -12.70132       -2.70877
H          3.18117      -12.27551       -1.22440

--Link1--
%chk=JID_10158.chk
%mem=8GB
%nprocshared=4
# B3LYP/6-311++G(d,p) empiricaldispersion=gd3bj scf=xqc pop=npa geom=check

CID_128869161_JID_10158_Energie_neutraal

0 1

--Link1--
%chk=JID_10158.chk
%mem=8GB
%nprocshared=4
# B3LYP/6-311++G(d,p) empiricaldispersion=gd3bj scf=xqc pop=npa geom=check

CID_128869161_JID_10158_Energie_kation

1 2

--Link1--
%chk=JID_10158.chk
%mem=8GB
%nprocshared=4
# B3LYP/6-311++G(d,p) empiricaldispersion=gd3bj scf=xqc pop=npa geom=check

CID_128869161_JID_10158_Energie_anion

-1 2
