%chk=JID_6926.chk
%mem=8GB
%nprocshared=4
# opt freq B3LYP/6-31G(d) empiricaldispersion=gd3bj scf=xqc

CID_116786713_JID_6926_neutraal

0 1
C          1.07539        0.02991       -0.05849
C          0.51841       -1.38521       -0.28980
C          1.71856       -2.33685       -0.51851
C         -0.18119       -1.84094        1.00958
C         -0.47021       -1.48363       -1.51195
C         -1.79183       -0.68255       -1.39614
C         -1.71962        0.81267       -1.63927
O         -0.73148        1.33728       -2.16145
N         -2.75462        1.63084       -1.31470
C         -4.05479        1.46104       -0.84004
N         -4.68046        2.62252       -0.54836
N         -5.96807        2.63748       -0.07600
C         -6.62000        1.47626        0.08869
C         -6.03203        0.26617       -0.20976
C         -4.72182        0.25918       -0.68950
N          0.20527       -1.23849       -2.79425
H          0.28774        0.73285        0.22866
H          1.58135        0.41883       -0.94780
H          1.81021        0.03180        0.75569
H          2.38108       -2.35693        0.35479
H          1.37980       -3.36332       -0.69867
H          2.32667       -2.02562       -1.37484
H         -0.95599       -1.13588        1.32656
H         -0.64572       -2.82526        0.88431
H          0.53398       -1.91701        1.83727
H         -0.78087       -2.53769       -1.55209
H         -2.48388       -1.07986       -2.15007
H         -2.22564       -0.86027       -0.41023
H         -2.53055        2.61009       -1.45571
H         -7.63399        1.55221        0.46302
H         -6.58260       -0.65953       -0.08114
H         -4.29324       -0.69573       -0.94937
H         -0.44033       -1.38622       -3.56857
H          0.44142       -0.23864       -2.84484

--Link1--
%chk=JID_6926.chk
%mem=8GB
%nprocshared=4
# B3LYP/6-311++G(d,p) empiricaldispersion=gd3bj scf=xqc pop=npa geom=check

CID_116786713_JID_6926_Energie_neutraal

0 1

--Link1--
%chk=JID_6926.chk
%mem=8GB
%nprocshared=4
# B3LYP/6-311++G(d,p) empiricaldispersion=gd3bj scf=xqc pop=npa geom=check

CID_116786713_JID_6926_Energie_kation

1 2

--Link1--
%chk=JID_6926.chk
%mem=8GB
%nprocshared=4
# B3LYP/6-311++G(d,p) empiricaldispersion=gd3bj scf=xqc pop=npa geom=check

CID_116786713_JID_6926_Energie_anion

-1 2
