%chk=JID_8209.chk
%mem=8GB
%nprocshared=4
# opt freq B3LYP/6-31G(d) empiricaldispersion=gd3bj scf=xqc

CID_64819828_JID_8209_neutraal

0 1
C          1.30600        0.17900       -0.14100
C         -0.07462       -0.29688       -0.55805
C         -0.71051       -0.83852        0.71975
N          0.14245       -0.40805        1.82609
C          1.10176        0.55998        1.31354
C          0.62224       -1.45202        2.73086
C          1.72256       -2.48582        2.36022
C          3.14054       -1.89341        2.30841
C          4.18561       -2.91205        1.85282
N          3.77215       -3.45785        0.55771
C          2.55233       -4.25501        0.72140
C          1.40633       -3.32254        1.11268
C          4.85066       -4.16858       -0.12434
C          4.57133       -4.37592       -1.62002
C          4.00666       -3.15498       -2.35974
C          4.85133       -1.87651       -2.20319
N          4.41835       -0.83377       -3.15108
O          3.91635       -3.48655       -3.75482
H          2.03602       -0.62771       -0.25071
H          1.64660        1.02355       -0.74759
H         -0.02066       -1.05127       -1.34894
H         -0.66031        0.54960       -0.93619
H         -1.71233       -0.41103        0.84325
H         -0.84751       -1.92230        0.66634
H          2.02602        0.64243        1.88943
H          0.63587        1.55327        1.35730
H          0.95642       -0.94437        3.64630
H         -0.25911       -2.02400        3.05388
H          1.73911       -3.19994        3.19822
H          3.19231       -1.05324        1.61518
H          3.41577       -1.50433        3.29598
H          5.14417       -2.38657        1.76253
H          4.31726       -3.70251        2.60223
H          2.68636       -5.04387        1.47229
H          2.26877       -4.74812       -0.21457
H          0.49847       -3.91336        1.28277
H          1.21076       -2.67758        0.25364
H          5.77603       -3.58251       -0.05246
H          5.05856       -5.13283        0.35578
H          5.50038       -4.69710       -2.10962
H          3.87923       -5.21650       -1.75904
H          2.98158       -2.95776       -2.02272
H          4.76790       -1.48505       -1.18471
H          5.90844       -2.09064       -2.39582
H          4.85256        0.04827       -2.87688
H          4.82056       -1.05151       -4.06435
H          3.50463       -2.69744       -4.15445

--Link1--
%chk=JID_8209.chk
%mem=8GB
%nprocshared=4
# B3LYP/6-311++G(d,p) empiricaldispersion=gd3bj scf=xqc pop=npa geom=check

CID_64819828_JID_8209_Energie_neutraal

0 1

--Link1--
%chk=JID_8209.chk
%mem=8GB
%nprocshared=4
# B3LYP/6-311++G(d,p) empiricaldispersion=gd3bj scf=xqc pop=npa geom=check

CID_64819828_JID_8209_Energie_kation

1 2

--Link1--
%chk=JID_8209.chk
%mem=8GB
%nprocshared=4
# B3LYP/6-311++G(d,p) empiricaldispersion=gd3bj scf=xqc pop=npa geom=check

CID_64819828_JID_8209_Energie_anion

-1 2
