%chk=JID_7681.chk
%mem=8GB
%nprocshared=4
# opt freq B3LYP/6-31G(d) empiricaldispersion=gd3bj scf=xqc

CID_141582454_JID_7681_neutraal

0 1
C          1.05916        0.05700        0.05702
C          0.71211       -1.12543       -0.84416
C          1.41689       -2.44789       -0.45854
C          1.20432       -3.11191        0.94078
C         -0.28152       -3.31250        1.28106
C          1.85486       -4.51740        0.86571
C          1.86844       -2.33929        2.10316
O          3.21299       -1.98275        1.81384
C         -0.78247       -1.32951       -1.07181
O         -1.25353       -2.30445       -1.64714
O         -1.52132       -0.29837       -0.58489
C         -2.94420       -0.47957       -0.65924
C         -3.66697        0.85704       -0.37796
C         -3.27718        1.89115       -1.45024
C         -5.18556        0.61544       -0.44687
C         -3.27320        1.41532        1.00512
O         -3.62904        0.52452        2.05601
H          0.51719        0.02370        1.00580
H          0.77844        0.99897       -0.42897
H          2.13374        0.10335        0.25733
H          1.09388       -0.85758       -1.84064
H          1.13572       -3.18995       -1.22040
H          2.49515       -2.29694       -0.60829
H         -0.79977       -3.86849        0.49259
H         -0.39802       -3.88425        2.20945
H         -0.79573       -2.35795        1.42894
H          2.91378       -4.45798        0.59190
H          1.78662       -5.04001        1.82664
H          1.35645       -5.14356        0.11640
H          1.32525       -1.42197        2.33871
H          1.86701       -2.93547        3.02387
H          3.74205       -2.79818        1.82046
H         -3.22345       -0.84301       -1.65660
H         -3.23238       -1.23798        0.07898
H         -3.51343        1.52436       -2.45562
H         -3.81836        2.83289       -1.30511
H         -2.20563        2.11725       -1.42144
H         -5.50534       -0.15221        0.26619
H         -5.74144        1.53282       -0.22326
H         -5.48649        0.27941       -1.44572
H         -2.19291        1.58486        1.06895
H         -3.76012        2.37895        1.19656
H         -4.57760        0.64389        2.23437

--Link1--
%chk=JID_7681.chk
%mem=8GB
%nprocshared=4
# B3LYP/6-311++G(d,p) empiricaldispersion=gd3bj scf=xqc pop=npa geom=check

CID_141582454_JID_7681_Energie_neutraal

0 1

--Link1--
%chk=JID_7681.chk
%mem=8GB
%nprocshared=4
# B3LYP/6-311++G(d,p) empiricaldispersion=gd3bj scf=xqc pop=npa geom=check

CID_141582454_JID_7681_Energie_kation

1 2

--Link1--
%chk=JID_7681.chk
%mem=8GB
%nprocshared=4
# B3LYP/6-311++G(d,p) empiricaldispersion=gd3bj scf=xqc pop=npa geom=check

CID_141582454_JID_7681_Energie_anion

-1 2
