%chk=JID_7379.chk
%mem=8GB
%nprocshared=4
# opt freq B3LYP/6-31G(d) empiricaldispersion=gd3bj scf=xqc

CID_84726303_JID_7379_neutraal

0 1
C          1.05345       -0.08191       -0.02085
C          0.73209       -1.30060       -0.82766
C         -0.11086       -1.28324       -1.87577
C         -0.31159       -2.58256       -2.57299
N          0.24130       -3.71556       -2.26455
C          1.08108       -3.68595       -1.18459
C          1.81009       -4.67605       -0.57123
C          2.46090       -4.05126        0.51132
N          2.23338       -2.73266        0.53565
N          1.34267       -2.51227       -0.46589
C          3.39559       -4.66549        1.49700
C          2.79489       -5.26235        2.78728
C          2.10521       -6.62482        2.59111
C          0.61743       -6.52903        2.26721
C         -0.10360       -5.55099        3.18586
N          0.52674       -4.23741        3.14207
C          1.91614       -4.29121        3.59310
H          0.76858       -0.22594        1.02680
H          0.51916        0.80044       -0.38956
H          2.12512        0.13931       -0.06470
H         -0.63159       -0.40757       -2.23502
H         -1.00064       -2.54704       -3.43334
H          1.84359       -5.71477       -0.86311
H          3.98383       -5.44002        0.98678
H          4.12872       -3.90079        1.79165
H          3.67378       -5.47175        3.41607
H          2.61927       -7.21942        1.82719
H          2.20292       -7.18795        3.52946
H          0.47564       -6.22738        1.22572
H          0.16179       -7.52193        2.36092
H         -1.14574       -5.45730        2.86138
H         -0.12215       -5.93263        4.21395
H          0.00713       -3.58350        3.72505
H          1.93094       -4.58984        4.64967
H          2.34479       -3.28304        3.55814

--Link1--
%chk=JID_7379.chk
%mem=8GB
%nprocshared=4
# B3LYP/6-311++G(d,p) empiricaldispersion=gd3bj scf=xqc pop=npa geom=check

CID_84726303_JID_7379_Energie_neutraal

0 1

--Link1--
%chk=JID_7379.chk
%mem=8GB
%nprocshared=4
# B3LYP/6-311++G(d,p) empiricaldispersion=gd3bj scf=xqc pop=npa geom=check

CID_84726303_JID_7379_Energie_kation

1 2

--Link1--
%chk=JID_7379.chk
%mem=8GB
%nprocshared=4
# B3LYP/6-311++G(d,p) empiricaldispersion=gd3bj scf=xqc pop=npa geom=check

CID_84726303_JID_7379_Energie_anion

-1 2
