%chk=JID_9960.chk
%mem=8GB
%nprocshared=4
# opt freq B3LYP/6-31G(d) empiricaldispersion=gd3bj scf=xqc

CID_66374305_JID_9960_neutraal

0 1
C          1.06732        0.02232        0.07049
C          0.73104       -1.44341        0.34047
C          0.88494       -1.88422        1.78675
N          1.12115       -3.13797        2.12443
C          1.15151       -3.28729        3.51016
C          0.96703       -2.10541        4.20366
S          0.70019       -0.80930        3.11858
C          1.35136       -4.57935        4.15966
O          1.40764       -4.76169        5.36840
O          1.46647       -5.62879        3.31263
N         -0.62788       -1.75497       -0.08065
C         -1.21104       -1.87585       -1.27421
O         -2.44193       -1.82051       -1.32057
N         -0.55318       -2.05006       -2.42468
C          0.79460       -2.45811       -2.78280
C          1.01531       -3.99273       -2.83816
C          0.07314       -4.63457       -3.87288
C          2.47059       -4.25066       -3.27488
C          0.79277       -4.67007       -1.47689
H          0.35898        0.70111        0.55865
H          1.02367        0.23856       -1.00257
H          2.07583        0.26824        0.42000
H          1.42877       -2.06261       -0.22011
H          0.95720       -1.95706        5.27490
H          1.56877       -6.39883        3.90502
H         -1.33537       -1.64801        0.63510
H         -1.22706       -2.12226       -3.17763
H          0.96170       -2.04008       -3.78411
H          1.52618       -1.97060       -2.14193
H          0.19699       -4.17496       -4.85977
H          0.27573       -5.70659       -3.97930
H         -0.97729       -4.52792       -3.58139
H          3.17951       -3.81666       -2.56054
H          2.68190       -5.32392       -3.34234
H          2.67399       -3.80968       -4.25721
H          1.47056       -4.27100       -0.71646
H         -0.23477       -4.54531       -1.12205
H          0.98118       -5.74836       -1.54123

--Link1--
%chk=JID_9960.chk
%mem=8GB
%nprocshared=4
# B3LYP/6-311++G(d,p) empiricaldispersion=gd3bj scf=xqc pop=npa geom=check

CID_66374305_JID_9960_Energie_neutraal

0 1

--Link1--
%chk=JID_9960.chk
%mem=8GB
%nprocshared=4
# B3LYP/6-311++G(d,p) empiricaldispersion=gd3bj scf=xqc pop=npa geom=check

CID_66374305_JID_9960_Energie_kation

1 2

--Link1--
%chk=JID_9960.chk
%mem=8GB
%nprocshared=4
# B3LYP/6-311++G(d,p) empiricaldispersion=gd3bj scf=xqc pop=npa geom=check

CID_66374305_JID_9960_Energie_anion

-1 2
