%chk=JID_4400.chk
%mem=8GB
%nprocshared=4
# opt freq B3LYP/6-31G(d) empiricaldispersion=gd3bj scf=xqc

CID_130859111_JID_4400_neutraal

0 1
C          1.03780       -0.08241        0.04218
C          0.15555       -0.42317       -1.15272
C          0.32396        0.61203       -2.25806
O          0.54080       -1.69001       -1.70187
N         -0.01031       -2.74206       -0.95539
C          0.62402       -3.93567       -0.84907
O          0.10282       -4.83532       -0.18444
C          1.96471       -4.16248       -1.53012
C          3.06794       -3.24386       -1.01057
C          3.44444       -2.38678       -2.18941
O          4.20749       -1.43497       -2.13994
N          2.81619       -2.88287       -3.31312
C          1.91912       -3.97518       -3.03684
C          2.91852       -2.29709       -4.62837
H          0.92342       -0.82815        0.83576
H          0.78388        0.89918        0.45399
H          2.09648       -0.08061       -0.23895
H         -0.89981       -0.44516       -0.85348
H         -0.30031        0.35297       -3.12017
H          0.04475        1.61231       -1.91345
H          1.35889        0.63903       -2.61735
H         -0.89523       -2.60614       -0.48038
H          2.23439       -5.20401       -1.30802
H          3.94952       -3.82423       -0.71840
H          2.75386       -2.61913       -0.17075
H          2.30039       -4.85983       -3.55838
H          0.92206       -3.74441       -3.42501
H          3.18145       -3.07935       -5.34527
H          1.95118       -1.86239       -4.89498
H          3.68120       -1.51427       -4.64566

--Link1--
%chk=JID_4400.chk
%mem=8GB
%nprocshared=4
# B3LYP/6-311++G(d,p) empiricaldispersion=gd3bj scf=xqc pop=npa geom=check

CID_130859111_JID_4400_Energie_neutraal

0 1

--Link1--
%chk=JID_4400.chk
%mem=8GB
%nprocshared=4
# B3LYP/6-311++G(d,p) empiricaldispersion=gd3bj scf=xqc pop=npa geom=check

CID_130859111_JID_4400_Energie_kation

1 2

--Link1--
%chk=JID_4400.chk
%mem=8GB
%nprocshared=4
# B3LYP/6-311++G(d,p) empiricaldispersion=gd3bj scf=xqc pop=npa geom=check

CID_130859111_JID_4400_Energie_anion

-1 2
