%chk=JID_10364.chk
%mem=8GB
%nprocshared=4
# opt=(cartesian,calcfc,maxcycle=500) freq B3LYP/6-31G(d) empiricaldispersion=gd3bj scf=xqc

CID_101689561_JID_10364_neutraal

0 1
O       -1.9378 1.4855  0.0823
O       -1.9126 -1.1167 1.0203
O       -1.3644 -0.9142 -2.5100
O       -2.5453 1.4181  -2.1366
O       -2.5161 -2.4872 -0.7276
C       -1.2957 -0.4316 -1.1728
C       -1.9961 0.9208  -1.1604
C       -1.9773 -1.4742 -0.2967
C       0.1264  -0.2938 -0.8163
C       -2.5795 2.7576  0.2167
C       -2.5336 -2.0205 1.9400
C       2.6633  -0.0402 -0.1652
C       -2.4240 3.2401  1.6430
C       -2.3735 -1.4814 3.3454
C       1.2855  -0.1793 -0.5217
C       3.5938  -0.9875 -0.5924
C       3.0768  1.0434  0.6096
C       4.9379  -0.8512 -0.2448
C       4.4207  1.1798  0.9573
C       5.3513  0.2324  0.5300
H       -2.1154 3.4749  -0.4694
H       -3.6432 2.6571  -0.0261
H       -3.5983 -2.1127 1.6981
H       -2.0563 -3.0038 1.8640
H       -2.3024 -1.0081 -2.7502
H       -1.3647 3.3287  1.9062
H       -2.9053 4.2120  1.7823
H       -2.8658 2.5225  2.3424
H       -2.8393 -2.1484 4.0761
H       -2.8285 -0.4890 3.4311
H       -1.3136 -1.3671 3.5955
H       3.2870  -1.8377 -1.1969
H       2.3634  1.7901  0.9502
H       5.6625  -1.5887 -0.5774
H       4.7429  2.0234  1.5606
H       6.3977  0.3387  0.8007

--Link1--
%chk=JID_10364.chk
%mem=8GB
%nprocshared=4
# B3LYP/6-311++G(d,p) empiricaldispersion=gd3bj scf=xqc pop=npa geom=check

CID_101689561_JID_10364_Energie_neutraal

0 1

--Link1--
%chk=JID_10364.chk
%mem=8GB
%nprocshared=4
# B3LYP/6-311++G(d,p) empiricaldispersion=gd3bj scf=xqc pop=npa geom=check

CID_101689561_JID_10364_Energie_kation

1 2

--Link1--
%chk=JID_10364.chk
%mem=8GB
%nprocshared=4
# B3LYP/6-311++G(d,p) empiricaldispersion=gd3bj scf=xqc pop=npa geom=check

CID_101689561_JID_10364_Energie_anion

-1 2
