%chk=JID_10192.chk
%mem=8GB
%nprocshared=4
# opt freq B3LYP/6-31G(d) empiricaldispersion=gd3bj scf=xqc

CID_63741407_JID_10192_neutraal

0 1
C          1.06350        0.00976       -0.07663
C          0.45327        0.84770        1.03755
C          0.47305        0.15172        2.40077
N          1.84435       -0.10478        2.84834
C          1.85304       -0.72144        4.18181
C          3.25813       -1.16321        4.69426
C          3.11597       -1.53594        6.19561
C          4.46170       -1.68785        6.90350
C          5.34077       -0.47420        6.65037
O          5.49386       -0.25637        5.25065
C          4.24627        0.02729        4.61094
C          3.83874       -2.34347        3.83643
N          3.00185       -3.57468        3.79594
C          3.57025       -4.59536        4.70258
C          2.69413       -5.84205        4.79478
C          2.51373       -6.47538        3.41933
C          1.99132       -5.41881        2.44751
C          2.86767       -4.14414        2.42674
C          2.21517       -3.18804        1.41655
C          1.57135       -7.67439        3.48571
H          2.13192       -0.15874        0.08785
H          0.95300        0.52475       -1.03636
H          0.56532       -0.96153       -0.15577
H          0.97835        1.80866        1.09806
H         -0.58769        1.07352        0.77672
H         -0.04270        0.79453        3.12433
H         -0.08607       -0.78871        2.33290
H          2.35500        0.77614        2.86340
H          1.42866        0.00470        4.88817
H          1.18328       -1.59051        4.19232
H          2.56760       -0.73569        6.71247
H          2.50701       -2.43588        6.32872
H          4.30728       -1.82331        7.97935
H          4.97611       -2.58104        6.53537
H          4.92599        0.42595        7.11905
H          6.33604       -0.63851        7.07530
H          4.47943        0.27074        3.56859
H          3.81821        0.93227        5.06128
H          4.01073       -1.95581        2.82742
H          4.85179       -2.59257        4.18038
H          4.57919       -4.88236        4.37634
H          3.66574       -4.20247        5.71683
H          1.71969       -5.57473        5.22429
H          3.15688       -6.56213        5.48025
H          3.48999       -6.82842        3.06172
H          0.96021       -5.14963        2.71681
H          1.94815       -5.85169        1.43955
H          3.86316       -4.41231        2.04645
H          2.84197       -2.32257        1.19167
H          2.04398       -3.69605        0.46022
H          1.24411       -2.83500        1.77744
H          1.45918       -8.13451        2.49835
H          1.96048       -8.43612        4.16931
H          0.57603       -7.38140        3.83700

--Link1--
%chk=JID_10192.chk
%mem=8GB
%nprocshared=4
# B3LYP/6-311++G(d,p) empiricaldispersion=gd3bj scf=xqc pop=npa geom=check

CID_63741407_JID_10192_Energie_neutraal

0 1

--Link1--
%chk=JID_10192.chk
%mem=8GB
%nprocshared=4
# B3LYP/6-311++G(d,p) empiricaldispersion=gd3bj scf=xqc pop=npa geom=check

CID_63741407_JID_10192_Energie_kation

1 2

--Link1--
%chk=JID_10192.chk
%mem=8GB
%nprocshared=4
# B3LYP/6-311++G(d,p) empiricaldispersion=gd3bj scf=xqc pop=npa geom=check

CID_63741407_JID_10192_Energie_anion

-1 2
