%chk=JID_6531.chk
%mem=8GB
%nprocshared=4
# opt freq B3LYP/6-31G(d) empiricaldispersion=gd3bj scf=xqc

CID_64128869_JID_6531_neutraal

0 1
C          2.54100        1.06400        0.00800
C          1.24485        0.30906        0.00351
C          0.04651        0.95767        0.32649
C         -1.18333        0.27602        0.29735
C         -1.21462       -1.08600       -0.07787
C         -0.00727       -1.71962       -0.41970
C          1.20664       -1.03137       -0.38377
C         -2.47069       -1.86030       -0.13057
C         -2.95143       -2.55985        0.99913
C         -4.15022       -3.27139        0.89424
C         -4.82296       -3.26666       -0.31404
N         -4.39195       -2.61638       -1.41266
C         -3.23643       -1.93030       -1.31163
N         -2.81409       -1.33222       -2.50061
C         -2.19976       -2.57287        2.30258
C         -2.44173        1.02614        0.64665
H          2.68666        1.56318       -0.95488
H          2.54993        1.81637        0.80366
H          3.38631        0.39153        0.18820
H          0.07196        2.01008        0.60461
H         -0.01385       -2.76352       -0.72911
H          2.11941       -1.55157       -0.66451
H         -4.55576       -3.82583        1.73413
H         -5.75574       -3.80981       -0.43564
H         -2.54747       -0.36533       -2.35944
H         -3.56231       -1.44814       -3.17706
H         -1.21926       -3.04184        2.17290
H         -2.07269       -1.55621        2.68670
H         -2.73735       -3.14352        3.06767
H         -2.22075        2.04659        0.97771
H         -3.09619        1.09741       -0.22776
H         -2.97465        0.53087        1.46392

--Link1--
%chk=JID_6531.chk
%mem=8GB
%nprocshared=4
# B3LYP/6-311++G(d,p) empiricaldispersion=gd3bj scf=xqc pop=npa geom=check

CID_64128869_JID_6531_Energie_neutraal

0 1

--Link1--
%chk=JID_6531.chk
%mem=8GB
%nprocshared=4
# B3LYP/6-311++G(d,p) empiricaldispersion=gd3bj scf=xqc pop=npa geom=check

CID_64128869_JID_6531_Energie_kation

1 2

--Link1--
%chk=JID_6531.chk
%mem=8GB
%nprocshared=4
# B3LYP/6-311++G(d,p) empiricaldispersion=gd3bj scf=xqc pop=npa geom=check

CID_64128869_JID_6531_Energie_anion

-1 2
