%chk=JID_1984.chk
%mem=8GB
%nprocshared=4
# opt freq B3LYP/6-31G(d) empiricaldispersion=gd3bj scf=xqc

CID_90851346_JID_1984_neutraal

0 1
C          0.95985        0.04380       -0.08044
C          0.33267        1.23819       -0.80032
C          0.61819        1.14140       -2.30302
C         -1.19106        1.33342       -0.56749
C         -1.67453        1.41184        0.90625
C         -0.97880        2.56265        1.64662
C         -3.23935        1.52460        0.98233
C         -3.92637        0.32980        0.30324
C         -3.76851        1.62437        2.42894
O         -3.62220        2.96144        2.90792
C         -4.05881        3.08879        4.25447
H          0.47568       -0.89416       -0.37272
H          0.88023        0.14414        1.00601
H          2.02553       -0.03791       -0.32049
H          0.81521        2.15481       -0.44320
H          0.18052        0.23463       -2.73448
H          0.20353        2.00471       -2.83415
H          1.69656        1.11986       -2.49328
H         -1.57196        2.21095       -1.10690
H         -1.64339        0.45670       -1.04497
H         -1.38934        0.47803        1.40789
H         -1.27936        3.53326        1.23882
H         -1.20832        2.54605        2.71564
H          0.11027        2.49073        1.58421
H         -3.53803        2.43603        0.44667
H         -3.56964       -0.61949        0.71642
H         -5.01268        0.37149        0.44027
H         -3.75499        0.32536       -0.77682
H         -4.83571        1.37509        2.46349
H         -3.23083        0.92752        3.08326
H         -3.46120        2.45032        4.91224
H         -3.92528        4.12911        4.56271
H         -5.11891        2.83163        4.34015

--Link1--
%chk=JID_1984.chk
%mem=8GB
%nprocshared=4
# B3LYP/6-311++G(d,p) empiricaldispersion=gd3bj scf=xqc pop=npa geom=check

CID_90851346_JID_1984_Energie_neutraal

0 1

--Link1--
%chk=JID_1984.chk
%mem=8GB
%nprocshared=4
# B3LYP/6-311++G(d,p) empiricaldispersion=gd3bj scf=xqc pop=npa geom=check

CID_90851346_JID_1984_Energie_kation

1 2

--Link1--
%chk=JID_1984.chk
%mem=8GB
%nprocshared=4
# B3LYP/6-311++G(d,p) empiricaldispersion=gd3bj scf=xqc pop=npa geom=check

CID_90851346_JID_1984_Energie_anion

-1 2
