%chk=JID_4172.chk
%mem=8GB
%nprocshared=4
# opt freq B3LYP/6-31G(d) empiricaldispersion=gd3bj scf=xqc

CID_103800311_JID_4172_neutraal

0 1
C          1.08400       -0.04819       -0.02492
C          0.70994       -1.14294       -1.02748
C          1.52039       -2.43987       -0.81980
C          1.75307       -2.93817        0.61695
C          0.51999       -3.27777        1.44505
O         -0.23088       -4.33781        0.87530
N         -0.74151       -1.33845       -0.97685
C         -1.35926       -1.69107       -2.26177
C         -2.48361       -0.67867       -2.54655
C         -3.67936       -0.83653       -1.60767
C         -4.22145       -2.26415       -1.63090
C         -3.13240       -3.29503       -1.33997
C         -1.93155       -3.11919       -2.26781
O         -5.26971       -2.39654       -0.67763
H          0.78287       -0.29663        0.99765
H          0.59761        0.89827       -0.28856
H          2.16538        0.12630       -0.02900
H          0.98302       -0.74230       -2.01286
H          1.09525       -3.24604       -1.42886
H          2.51724       -2.26512       -1.24920
H          2.37080       -3.84281        0.54342
H          2.35334       -2.20133        1.16323
H          0.83312       -3.60457        2.44224
H         -0.13374       -2.41489        1.58941
H         -0.26230       -4.21960       -0.08640
H         -1.02040       -1.96934       -0.23220
H         -0.63157       -1.61870       -3.07945
H         -2.82663       -0.81275       -3.58090
H         -2.09912        0.34702       -2.48199
H         -4.47457       -0.13802       -1.89535
H         -3.40151       -0.55673       -0.58358
H         -4.65613       -2.46848       -2.61647
H         -2.82261       -3.22732       -0.29001
H         -3.54515       -4.30492       -1.45437
H         -2.24555       -3.36285       -3.29164
H         -1.15495       -3.84695       -2.01213
H         -4.90168       -2.19905        0.20093

--Link1--
%chk=JID_4172.chk
%mem=8GB
%nprocshared=4
# B3LYP/6-311++G(d,p) empiricaldispersion=gd3bj scf=xqc pop=npa geom=check

CID_103800311_JID_4172_Energie_neutraal

0 1

--Link1--
%chk=JID_4172.chk
%mem=8GB
%nprocshared=4
# B3LYP/6-311++G(d,p) empiricaldispersion=gd3bj scf=xqc pop=npa geom=check

CID_103800311_JID_4172_Energie_kation

1 2

--Link1--
%chk=JID_4172.chk
%mem=8GB
%nprocshared=4
# B3LYP/6-311++G(d,p) empiricaldispersion=gd3bj scf=xqc pop=npa geom=check

CID_103800311_JID_4172_Energie_anion

-1 2
