%chk=JID_8821.chk
%mem=8GB
%nprocshared=4
# opt freq B3LYP/6-31G(d) empiricaldispersion=gd3bj scf=xqc

CID_128924372_JID_8821_neutraal

0 1
C          1.02364       -0.06998       -0.06741
C          0.74991       -0.18563        1.42783
C         -0.40509        0.71260        1.89565
N          0.00403        2.10916        2.02262
C          1.16896        2.30920        2.89500
C          2.33243        1.45687        2.36412
O          1.93866        0.06430        2.18655
C          3.62537        1.61511        3.22518
C          4.10900        2.68834        2.23755
C          3.15509        2.08316        1.19543
C         -0.69331        3.22310        1.59282
O         -0.26243        4.36103        1.81231
C         -2.01990        3.09349        0.83389
C         -1.86071        2.52004       -0.57943
C         -2.79120        1.37145       -0.93291
O         -4.05315        1.51481       -0.29716
C         -3.93591        1.38374        1.11226
C         -3.15523        2.54297        1.70723
H          1.23333        0.96031       -0.36668
H          0.16471       -0.41955       -0.64865
H          1.89819       -0.66828       -0.34374
H          0.47137       -1.22683        1.62809
H         -1.25374        0.60037        1.23112
H         -0.72866        0.39964        2.89597
H          0.88045        1.98124        3.90123
H          1.44787        3.36482        2.96598
H          3.48747        1.95942        4.25428
H          4.25674        0.71849        3.24222
H          5.17150        2.65350        1.98364
H          3.84975        3.71095        2.53359
H          3.63650        1.34397        0.54440
H          2.63361        2.81357        0.57037
H         -2.29916        4.14760        0.66524
H         -2.08706        3.33617       -1.28069
H         -0.82459        2.24342       -0.80165
H         -2.35522        0.40105       -0.67171
H         -2.95875        1.35249       -2.01524
H         -3.47873        0.41900        1.35851
H         -4.94629        1.36461        1.53491
H         -2.81645        2.28389        2.71708
H         -3.87079        3.36495        1.85329

--Link1--
%chk=JID_8821.chk
%mem=8GB
%nprocshared=4
# B3LYP/6-311++G(d,p) empiricaldispersion=gd3bj scf=xqc pop=npa geom=check

CID_128924372_JID_8821_Energie_neutraal

0 1

--Link1--
%chk=JID_8821.chk
%mem=8GB
%nprocshared=4
# B3LYP/6-311++G(d,p) empiricaldispersion=gd3bj scf=xqc pop=npa geom=check

CID_128924372_JID_8821_Energie_kation

1 2

--Link1--
%chk=JID_8821.chk
%mem=8GB
%nprocshared=4
# B3LYP/6-311++G(d,p) empiricaldispersion=gd3bj scf=xqc pop=npa geom=check

CID_128924372_JID_8821_Energie_anion

-1 2
