%chk=JID_9927.chk
%mem=8GB
%nprocshared=4
# opt freq B3LYP/6-31G(d) empiricaldispersion=gd3bj scf=xqc

CID_79744434_JID_9927_neutraal

0 1
C          1.03743        0.06417       -0.06694
C          1.20432       -0.41191        1.38884
C          2.52791        0.16768        1.94235
C          0.06543        0.19856        2.23644
C          1.21186       -1.98890        1.50666
C          2.26077       -2.66730        0.60278
C          2.86654       -3.91176        1.24985
C          2.00234       -5.16948        1.26226
C          0.53832       -5.11205        1.74588
C         -0.29133       -4.08339        0.95665
C         -0.18937       -2.60442        1.31465
C          0.25071       -5.10002        3.27187
C          1.24742       -4.45460        4.17646
N          2.50024       -4.84404        4.32546
C          3.04383       -4.03374        5.28477
C          2.10225       -3.16076        5.76723
N          0.95438       -3.46102        5.08630
C         -0.33358       -2.86549        5.34479
O         -0.02553       -6.38531        1.28883
H          1.02821        1.15928       -0.12063
H          0.09956       -0.28825       -0.50664
H          1.85698       -0.28157       -0.70504
H          2.49970        1.26365        1.96219
H          2.70928       -0.17495        2.96736
H          3.39370       -0.11292        1.33603
H         -0.92307       -0.06218        1.84477
H          0.12215       -0.14320        3.27573
H          0.12256        1.29345        2.24588
H          1.49618       -2.19285        2.54564
H          3.09800       -1.98840        0.41557
H          1.84840       -2.90112       -0.38555
H          3.21311       -3.66268        2.25562
H          3.78111       -4.16080        0.69424
H          2.53371       -5.95203        1.82107
H          1.99451       -5.55155        0.22974
H         -0.07524       -4.20438       -0.11458
H         -1.35394       -4.35950        1.03169
H         -0.77476       -2.43481        2.22485
H         -0.72451       -2.06388        0.52512
H         -0.75310       -4.69176        3.43904
H          0.17031       -6.13927        3.62387
H          4.07971       -4.12926        5.58264
H          2.15049       -2.39515        6.52856
H         -0.25903       -2.19116        6.20211
H         -0.64219       -2.30180        4.46417
H         -1.04896       -3.66007        5.57048
H          0.55065       -7.09419        1.62856

--Link1--
%chk=JID_9927.chk
%mem=8GB
%nprocshared=4
# B3LYP/6-311++G(d,p) empiricaldispersion=gd3bj scf=xqc pop=npa geom=check

CID_79744434_JID_9927_Energie_neutraal

0 1

--Link1--
%chk=JID_9927.chk
%mem=8GB
%nprocshared=4
# B3LYP/6-311++G(d,p) empiricaldispersion=gd3bj scf=xqc pop=npa geom=check

CID_79744434_JID_9927_Energie_kation

1 2

--Link1--
%chk=JID_9927.chk
%mem=8GB
%nprocshared=4
# B3LYP/6-311++G(d,p) empiricaldispersion=gd3bj scf=xqc pop=npa geom=check

CID_79744434_JID_9927_Energie_anion

-1 2
