%chk=JID_8808.chk
%mem=8GB
%nprocshared=4
# opt freq B3LYP/6-31G(d) empiricaldispersion=gd3bj scf=xqc

CID_115653070_JID_8808_neutraal

0 1
C          1.03790       -0.07770       -0.05026
O          1.41184        0.84813        0.96207
C          0.93707        0.51431        2.27241
C         -0.38944        1.20984        2.60202
O         -1.44609        0.30823        2.94430
C         -1.92469       -0.50563        1.88110
C         -3.33392       -0.11751        1.44975
C         -3.50443        1.31250        0.92919
C         -2.68458        1.71719       -0.30269
N         -2.90645        0.84095       -1.44994
C         -2.52650        1.46210       -2.72492
C         -1.06501        1.72466       -2.86803
C         -0.26331        2.80942       -2.56599
C          1.04866        2.47428       -2.98457
C          0.96328        1.21053       -3.52091
O         -0.31156        0.73776       -3.44164
C          1.94704        0.36568       -4.09876
N          2.76671       -0.31361       -4.56188
H          1.74520        0.03280       -0.87584
H          0.04397        0.15096       -0.43130
H          1.09544       -1.11159        0.30261
H          0.90296       -0.56951        2.42566
H          1.69918        0.90776        2.95485
H         -0.23782        1.82102        3.49937
H         -0.70913        1.89548        1.81615
H         -1.25513       -0.51520        1.02688
H         -1.95319       -1.53220        2.26384
H         -3.68182       -0.83009        0.69293
H         -3.99944       -0.22971        2.31516
H         -4.56775        1.45685        0.69689
H         -3.27753        2.01614        1.73981
H         -2.97445        2.74588       -0.55144
H         -1.62064        1.74117       -0.06208
H         -2.38210       -0.02552       -1.34045
H         -2.84392        0.79146       -3.53221
H         -3.08810        2.39243       -2.87178
H         -0.58943        3.73155       -2.10380
H          1.94138        3.08045       -2.90647

--Link1--
%chk=JID_8808.chk
%mem=8GB
%nprocshared=4
# B3LYP/6-311++G(d,p) empiricaldispersion=gd3bj scf=xqc pop=npa geom=check

CID_115653070_JID_8808_Energie_neutraal

0 1

--Link1--
%chk=JID_8808.chk
%mem=8GB
%nprocshared=4
# B3LYP/6-311++G(d,p) empiricaldispersion=gd3bj scf=xqc pop=npa geom=check

CID_115653070_JID_8808_Energie_kation

1 2

--Link1--
%chk=JID_8808.chk
%mem=8GB
%nprocshared=4
# B3LYP/6-311++G(d,p) empiricaldispersion=gd3bj scf=xqc pop=npa geom=check

CID_115653070_JID_8808_Energie_anion

-1 2
