%chk=JID_9352.chk
%mem=8GB
%nprocshared=4
# opt freq B3LYP/6-31G(d) empiricaldispersion=gd3bj scf=xqc

CID_114193441_JID_9352_neutraal

0 1
C          0.91815        0.02055       -0.05365
C          0.22575        1.38195       -0.09786
C          0.61830        2.15677       -1.38840
C          0.37899        1.47770       -2.76212
C         -1.08419        1.49591       -3.27257
C         -1.87973        2.81422       -3.24933
C         -1.50874        3.82458       -4.36077
C         -2.74331        4.24445       -5.18299
C         -3.69073        5.16509       -4.41707
C         -2.96435        6.39811       -3.89268
C         -1.75311        6.01806       -3.04944
C         -0.80983        5.07820       -3.80062
N          1.32449        2.10815       -3.71505
N          1.45795        1.30191       -4.90701
C         -1.30092        1.31269        0.12281
C         -1.85390        0.87247        1.51341
C         -1.14586        1.59151        2.67089
C         -3.35322        1.24882        1.55466
C         -1.76283       -0.64947        1.72164
H          0.36573       -0.73404       -0.62230
H          1.02514       -0.32995        0.97566
H          1.93342        0.07885       -0.46153
H          0.64955        1.98127        0.71825
H          0.16459        3.15378       -1.36353
H          1.69913        2.34563       -1.29326
H          0.67659        0.42598       -2.66764
H         -1.12564        1.08616       -4.29064
H         -1.64780        0.76712       -2.68092
H         -2.93256        2.52624       -3.36981
H         -1.82515        3.27147       -2.25841
H         -0.82469        3.33891       -5.06589
H         -2.40198        4.76659       -6.08669
H         -3.28757        3.35747       -5.52871
H         -4.14637        4.62316       -3.58015
H         -4.50955        5.47615       -5.07585
H         -3.65283        7.00827       -3.29734
H         -2.63967        7.01730       -4.73813
H         -2.08936        5.54740       -2.11845
H         -1.20956        6.92552       -2.76199
H          0.01668        4.79972       -3.13928
H         -0.36199        5.63037       -4.63727
H          1.00604        3.05482       -3.93091
H          2.13071        1.72467       -5.55398
H          1.86110        0.38708       -4.68215
H         -1.69461        2.31768       -0.08039
H         -1.74623        0.65416       -0.62851
H         -1.16933        2.67822        2.53377
H         -1.62932        1.36724        3.62884
H         -0.09932        1.28257        2.76019
H         -3.90596        0.75484        0.74734
H         -3.81371        0.95128        2.50380
H         -3.49490        2.33002        1.44564
H         -2.15980       -1.19369        0.85769
H         -0.73962       -0.98725        1.89455
H         -2.34166       -0.96038        2.59964

--Link1--
%chk=JID_9352.chk
%mem=8GB
%nprocshared=4
# B3LYP/6-311++G(d,p) empiricaldispersion=gd3bj scf=xqc pop=npa geom=check

CID_114193441_JID_9352_Energie_neutraal

0 1

--Link1--
%chk=JID_9352.chk
%mem=8GB
%nprocshared=4
# B3LYP/6-311++G(d,p) empiricaldispersion=gd3bj scf=xqc pop=npa geom=check

CID_114193441_JID_9352_Energie_kation

1 2

--Link1--
%chk=JID_9352.chk
%mem=8GB
%nprocshared=4
# B3LYP/6-311++G(d,p) empiricaldispersion=gd3bj scf=xqc pop=npa geom=check

CID_114193441_JID_9352_Energie_anion

-1 2
