%chk=JID_4389.chk
%mem=8GB
%nprocshared=4
# opt freq B3LYP/6-31G(d) empiricaldispersion=gd3bj scf=xqc

CID_130020150_JID_4389_neutraal

0 1
C          2.22000       -0.59600        0.42600
C          2.32159        0.89244        0.09508
C          1.07730        1.66893        0.52995
C         -0.18638        1.03407       -0.05850
C         -1.46230        1.77605        0.33797
C         -2.63628        1.24136       -0.47582
C         -2.51946       -0.23227       -0.91661
C         -1.63147       -1.08999       -0.00962
C         -0.29717       -0.43488        0.38915
C          0.92524       -1.22340       -0.09642
N         -3.89275       -0.67544       -0.86300
C         -4.67840        0.19662       -0.13468
O         -5.85937        0.05537        0.11851
N         -3.89161        1.27414        0.23480
H          2.26872       -0.72541        1.51445
H          3.08160       -1.12653        0.00515
H          3.20858        1.31752        0.57822
H          2.46147        1.01129       -0.98663
H          1.16592        2.70970        0.19712
H          1.01824        1.68666        1.62530
H         -0.09180        1.07343       -1.15376
H         -1.35921        2.85330        0.15946
H         -1.64584        1.66020        1.41421
H         -2.77596        1.86484       -1.36916
H         -2.16800       -0.30033       -1.95226
H         -1.46921       -2.06772       -0.48085
H         -2.17945       -1.31438        0.91700
H         -0.26481       -0.45658        1.48931
H          0.94391       -1.24875       -1.19307
H          0.86649       -2.26242        0.24863
H         -4.26176       -1.55692       -1.19307
H         -4.35683        2.10901        0.56571

--Link1--
%chk=JID_4389.chk
%mem=8GB
%nprocshared=4
# B3LYP/6-311++G(d,p) empiricaldispersion=gd3bj scf=xqc pop=npa geom=check

CID_130020150_JID_4389_Energie_neutraal

0 1

--Link1--
%chk=JID_4389.chk
%mem=8GB
%nprocshared=4
# B3LYP/6-311++G(d,p) empiricaldispersion=gd3bj scf=xqc pop=npa geom=check

CID_130020150_JID_4389_Energie_kation

1 2

--Link1--
%chk=JID_4389.chk
%mem=8GB
%nprocshared=4
# B3LYP/6-311++G(d,p) empiricaldispersion=gd3bj scf=xqc pop=npa geom=check

CID_130020150_JID_4389_Energie_anion

-1 2
