%chk=JID_7963.chk
%mem=8GB
%nprocshared=4
# opt freq B3LYP/6-31G(d) empiricaldispersion=gd3bj scf=xqc

CID_149944019_JID_7963_neutraal

0 1
C          1.04415       -0.03825       -0.08116
C          0.02664        1.09278       -0.02638
C          0.59751        2.22066        0.76877
C          1.06159        3.35622        0.24137
O          1.76270        4.23123        1.02130
C          2.77965        5.01907        0.35011
C          3.66478        5.53433        1.47996
C          5.00558        5.50580        1.58314
C          5.75643        5.98032        2.78292
O          3.52018        4.34056       -0.69205
C          4.11338        3.11997       -0.56458
C          4.20667        2.31562        0.50293
C          4.88552        0.98505        0.46503
O          2.11025        6.18720       -0.21030
N          3.00748        6.97234       -0.97210
N          2.47088        8.00016       -1.42257
N          1.98651        8.94578       -1.83712
H          1.94266        0.26478       -0.62886
H          0.61586       -0.90327       -0.59795
H          1.34425       -0.36075        0.92181
H         -0.22980        1.40845       -1.04402
H         -0.89741        0.74546        0.44856
H          0.72386        2.05022        1.83590
H          1.00852        3.60712       -0.81017
H          3.09187        5.95620        2.30306
H          5.60577        5.10158        0.77142
H          6.33733        5.15359        3.20407
H          6.44704        6.77996        2.50125
H          5.09073        6.35874        3.56503
H          4.54496        2.85016       -1.52381
H          3.77409        2.59686        1.45777
H          5.72371        0.97347        1.16772
H          4.18188        0.19907        0.75576
H          5.26970        0.74393       -0.53141

--Link1--
%chk=JID_7963.chk
%mem=8GB
%nprocshared=4
# B3LYP/6-311++G(d,p) empiricaldispersion=gd3bj scf=xqc pop=npa geom=check

CID_149944019_JID_7963_Energie_neutraal

0 1

--Link1--
%chk=JID_7963.chk
%mem=8GB
%nprocshared=4
# B3LYP/6-311++G(d,p) empiricaldispersion=gd3bj scf=xqc pop=npa geom=check

CID_149944019_JID_7963_Energie_kation

1 2

--Link1--
%chk=JID_7963.chk
%mem=8GB
%nprocshared=4
# B3LYP/6-311++G(d,p) empiricaldispersion=gd3bj scf=xqc pop=npa geom=check

CID_149944019_JID_7963_Energie_anion

-1 2
