%chk=JID_6670.chk
%mem=8GB
%nprocshared=4
# opt freq B3LYP/6-31G(d) empiricaldispersion=gd3bj scf=xqc

CID_80271334_JID_6670_neutraal

0 1
C          0.96246       -0.04233        0.08246
C          0.20844        0.52184        1.28867
C          0.83771       -0.01635        2.57549
N          0.24958        1.97826        1.15721
C         -0.24108        2.72142        2.31367
C         -0.17618        4.18302        2.00770
C          0.88285        4.96715        1.57088
O          0.40452        6.24594        1.42197
C         -0.89885        6.16450        1.79026
N         -1.30491        4.96922        2.14534
C          2.31640        4.73918        1.18821
C          3.19682        5.95764        1.53292
C          4.62377        5.42315        1.59670
C          4.50023        3.94645        1.95561
C          3.00381        3.64799        2.02714
C          2.39453        4.42219       -0.31748
H          0.51103        0.29101       -0.85910
H          0.93580       -1.13757        0.08721
H          2.01396        0.26792        0.08274
H         -0.83404        0.18403        1.24109
H          1.85836        0.35746        2.71125
H          0.24895        0.26169        3.45571
H          0.88277       -1.11098        2.55390
H         -0.29883        2.25676        0.34198
H         -1.27444        2.43555        2.54129
H          0.37121        2.53649        3.20217
H         -1.47048        7.08053        1.75340
H          3.10378        6.77279        0.80672
H          2.92645        6.36631        2.51604
H          5.22431        5.97177        2.32901
H          5.11780        5.53111        0.62420
H          4.99259        3.71671        2.90612
H          4.97914        3.33135        1.18496
H          2.68182        3.69907        3.07553
H          2.80002        2.63366        1.67243
H          1.82151        3.52319       -0.56844
H          1.98218        5.24507       -0.91362
H          3.42204        4.25458       -0.65618

--Link1--
%chk=JID_6670.chk
%mem=8GB
%nprocshared=4
# B3LYP/6-311++G(d,p) empiricaldispersion=gd3bj scf=xqc pop=npa geom=check

CID_80271334_JID_6670_Energie_neutraal

0 1

--Link1--
%chk=JID_6670.chk
%mem=8GB
%nprocshared=4
# B3LYP/6-311++G(d,p) empiricaldispersion=gd3bj scf=xqc pop=npa geom=check

CID_80271334_JID_6670_Energie_kation

1 2

--Link1--
%chk=JID_6670.chk
%mem=8GB
%nprocshared=4
# B3LYP/6-311++G(d,p) empiricaldispersion=gd3bj scf=xqc pop=npa geom=check

CID_80271334_JID_6670_Energie_anion

-1 2
