%chk=JID_5255.chk
%mem=8GB
%nprocshared=4
# opt freq B3LYP/6-31G(d) empiricaldispersion=gd3bj scf=xqc

CID_119086846_JID_5255_neutraal

0 1
C          1.06095        0.03510        0.07109
C          0.76371        1.42979       -0.46343
C          1.59460        1.79394       -1.69507
C          1.15452        1.07146       -2.93999
N          1.73138       -0.11146       -3.21461
C          1.31605       -0.72464       -4.33908
C          0.36002       -0.20438       -5.19753
C         -0.06012       -0.84443       -6.38062
C         -1.01796       -0.25168       -7.20239
C         -1.55726        0.97542       -6.82840
C         -1.13280        1.59738       -5.64443
C         -0.17469        1.02711       -4.81595
N          0.20809        1.66051       -3.69819
O         -1.33431       -0.96532       -8.32318
C         -2.25403       -0.36729       -9.22900
H          0.76591       -0.73913       -0.64324
H          0.50414       -0.13814        0.99761
H          2.12688       -0.08320        0.29007
H         -0.30735        1.51638       -0.68190
H          0.98753        2.15240        0.33061
H          1.50601        2.87243       -1.87558
H          2.65742        1.59571       -1.51243
H          1.79551       -1.67888       -4.53869
H          0.36409       -1.80417       -6.66675
H         -2.30814        1.48066       -7.42693
H         -1.56136        2.55727       -5.36431
H         -3.23657       -0.23670       -8.76387
H         -1.86863        0.58286       -9.61368
H         -2.37519       -1.04589      -10.07889

--Link1--
%chk=JID_5255.chk
%mem=8GB
%nprocshared=4
# B3LYP/6-311++G(d,p) empiricaldispersion=gd3bj scf=xqc pop=npa geom=check

CID_119086846_JID_5255_Energie_neutraal

0 1

--Link1--
%chk=JID_5255.chk
%mem=8GB
%nprocshared=4
# B3LYP/6-311++G(d,p) empiricaldispersion=gd3bj scf=xqc pop=npa geom=check

CID_119086846_JID_5255_Energie_kation

1 2

--Link1--
%chk=JID_5255.chk
%mem=8GB
%nprocshared=4
# B3LYP/6-311++G(d,p) empiricaldispersion=gd3bj scf=xqc pop=npa geom=check

CID_119086846_JID_5255_Energie_anion

-1 2
