%chk=JID_7419.chk
%mem=8GB
%nprocshared=4
# opt freq B3LYP/6-31G(d) empiricaldispersion=gd3bj scf=xqc

CID_144918109_JID_7419_neutraal

0 1
C          0.93711       -0.01664        0.07595
C          0.96248        0.45570        1.52829
C          1.47487        1.89987        1.68851
C          0.54007        2.90600        1.00515
C          1.64820        2.30906        3.16850
C          2.67523        1.46386        3.93596
C          3.27100        2.20613        5.14190
C          2.28259        2.42825        6.29182
C          2.46869        1.41790        7.40804
O          3.58286        1.08122        7.81129
N          1.38735        0.89788        8.04868
C         -0.02041        1.05103        7.74220
C         -0.43247        0.15946        6.57279
O         -0.49216        0.62501        5.43184
C         -0.78507       -1.30266        6.86349
C         -1.07194       -2.04921        5.55907
C          0.31878       -2.02364        7.63078
H          0.20690        0.53998       -0.51795
H          0.65776       -1.07442        0.03287
H          1.92220        0.09240       -0.38836
H         -0.04364        0.36391        1.95542
H          1.60663       -0.23140        2.08810
H          2.45669        1.97542        1.20289
H         -0.47765        2.83429        1.40384
H          0.89139        3.93192        1.16079
H          0.49692        2.74351       -0.07567
H          1.96482        3.35963        3.19507
H          0.67882        2.26581        3.67800
H          2.22211        0.52106        4.26407
H          3.50244        1.20472        3.26398
H          4.15162        1.64911        5.48237
H          3.64237        3.18056        4.80128
H          2.48491        3.40565        6.74803
H          1.25669        2.46381        5.92889
H          1.65476        0.25796        8.78748
H         -0.60235        0.78254        8.62897
H         -0.23959        2.09500        7.49996
H         -1.70109       -1.29915        7.46604
H         -0.19510       -2.04767        4.90103
H         -1.34903       -3.09022        5.75444
H         -1.89719       -1.58028        5.01231
H          0.40476       -1.63760        8.65132
H          0.10934       -3.09551        7.71114
H          1.29091       -1.90189        7.14044

--Link1--
%chk=JID_7419.chk
%mem=8GB
%nprocshared=4
# B3LYP/6-311++G(d,p) empiricaldispersion=gd3bj scf=xqc pop=npa geom=check

CID_144918109_JID_7419_Energie_neutraal

0 1

--Link1--
%chk=JID_7419.chk
%mem=8GB
%nprocshared=4
# B3LYP/6-311++G(d,p) empiricaldispersion=gd3bj scf=xqc pop=npa geom=check

CID_144918109_JID_7419_Energie_kation

1 2

--Link1--
%chk=JID_7419.chk
%mem=8GB
%nprocshared=4
# B3LYP/6-311++G(d,p) empiricaldispersion=gd3bj scf=xqc pop=npa geom=check

CID_144918109_JID_7419_Energie_anion

-1 2
