%chk=JID_8462.chk
%mem=8GB
%nprocshared=4
# opt freq B3LYP/6-31G(d) empiricaldispersion=gd3bj scf=xqc

CID_111194900_JID_8462_neutraal

0 1
C          1.03907        0.09076        0.01535
C          0.91726       -1.42501        0.04553
C          0.97870       -2.01471        1.45673
C         -0.11546       -1.54269        2.42017
C         -1.55705       -1.76427        1.94818
C         -1.93420       -3.22264        1.62933
C         -1.85404       -4.12693        2.85938
N         -3.30884       -3.22679        1.11642
C         -3.81813       -4.25309        0.37274
N         -4.99024       -4.77850        0.45497
C         -5.92502       -4.26421        1.44137
N         -2.98131       -4.76966       -0.56864
C         -2.51891       -3.92444       -1.65825
C         -1.48690       -4.57972       -2.50421
C         -0.51762       -5.52044       -2.22546
C          0.15568       -5.71659       -3.44310
N         -0.33793       -4.95661       -4.42295
N         -1.33360       -4.27786       -3.82983
H          0.18045        0.57229        0.49226
H          1.08346        0.44311       -1.02020
H          1.94949        0.42175        0.52486
H         -0.00806       -1.72718       -0.45602
H          1.73937       -1.85185       -0.54175
H          0.95161       -3.10812        1.38111
H          1.95291       -1.77018        1.89898
H          0.03277       -2.04173        3.38517
H          0.02008       -0.47316        2.62207
H         -2.23234       -1.37676        2.72319
H         -1.74433       -1.14285        1.06311
H         -1.24633       -3.60575        0.86999
H         -2.49276       -3.75557        3.66841
H         -2.18505       -5.14349        2.61976
H         -0.82942       -4.19711        3.23636
H         -3.96052       -2.88113        1.80979
H         -5.54546       -4.39402        2.46023
H         -6.15783       -3.20931        1.26276
H         -6.86370       -4.82235        1.36890
H         -3.43954       -5.58754       -0.96244
H         -3.38184       -3.64926       -2.27808
H         -2.09617       -2.98929       -1.27330
H         -0.32986       -5.99583       -1.27273
H          0.98509       -6.37859       -3.65682
H         -1.86674       -3.62373       -4.39388

--Link1--
%chk=JID_8462.chk
%mem=8GB
%nprocshared=4
# B3LYP/6-311++G(d,p) empiricaldispersion=gd3bj scf=xqc pop=npa geom=check

CID_111194900_JID_8462_Energie_neutraal

0 1

--Link1--
%chk=JID_8462.chk
%mem=8GB
%nprocshared=4
# B3LYP/6-311++G(d,p) empiricaldispersion=gd3bj scf=xqc pop=npa geom=check

CID_111194900_JID_8462_Energie_kation

1 2

--Link1--
%chk=JID_8462.chk
%mem=8GB
%nprocshared=4
# B3LYP/6-311++G(d,p) empiricaldispersion=gd3bj scf=xqc pop=npa geom=check

CID_111194900_JID_8462_Energie_anion

-1 2
