%chk=JID_4626.chk
%mem=8GB
%nprocshared=4
# opt freq B3LYP/6-31G(d) empiricaldispersion=gd3bj scf=xqc

CID_130672229_JID_4626_neutraal

0 1
C          2.54100        1.06400        0.00800
C          1.20532        0.38257        0.03788
C          0.02770        1.12689       -0.05913
C         -1.21640        0.49531        0.02257
C         -1.27146       -0.89393        0.22650
C         -0.11225       -1.67396        0.29664
C          1.12014       -1.00357        0.23755
N         -0.10564       -3.04271        0.55778
C         -1.24884       -3.90854        0.30995
C         -1.19635       -4.48460       -1.09518
C         -0.15508       -5.54428       -1.40392
C         -1.59893       -5.93627       -1.27955
C         -1.56762       -3.52478       -2.19736
C         -2.48080        1.30156       -0.02737
H          2.50778        1.96175       -0.61825
H          2.83791        1.35035        1.02159
H          3.30686        0.40388       -0.41261
H          0.07903        2.20628       -0.18544
H         -2.24933       -1.35105        0.33522
H          2.03974       -1.57362        0.35241
H          0.76922       -3.48349        0.28999
H         -1.18821       -4.72649        1.03880
H         -2.21429       -3.42992        0.49876
H          0.29246       -5.55629       -2.39185
H          0.52150       -5.85782       -0.61646
H         -1.89281       -6.51489       -0.41037
H         -2.12525       -6.22263       -2.18391
H         -2.52148       -3.03511       -1.97624
H         -0.79876       -2.75606       -2.31904
H         -1.67323       -4.03433       -3.16164
H         -2.77184        1.60425        0.98315
H         -2.34881        2.19868       -0.64138
H         -3.29582        0.72153       -0.47298

--Link1--
%chk=JID_4626.chk
%mem=8GB
%nprocshared=4
# B3LYP/6-311++G(d,p) empiricaldispersion=gd3bj scf=xqc pop=npa geom=check

CID_130672229_JID_4626_Energie_neutraal

0 1

--Link1--
%chk=JID_4626.chk
%mem=8GB
%nprocshared=4
# B3LYP/6-311++G(d,p) empiricaldispersion=gd3bj scf=xqc pop=npa geom=check

CID_130672229_JID_4626_Energie_kation

1 2

--Link1--
%chk=JID_4626.chk
%mem=8GB
%nprocshared=4
# B3LYP/6-311++G(d,p) empiricaldispersion=gd3bj scf=xqc pop=npa geom=check

CID_130672229_JID_4626_Energie_anion

-1 2
