%chk=JID_4790.chk
%mem=8GB
%nprocshared=4
# opt freq B3LYP/6-31G(d) empiricaldispersion=gd3bj scf=xqc

CID_116242365_JID_4790_neutraal

0 1
C          1.01006        0.07878       -0.06077
C          0.06684       -1.04475       -0.46652
C          0.24324       -2.31835        0.36479
C         -0.14081       -2.19929        1.84229
S         -1.78803       -2.88930        2.24150
C         -2.89058       -1.57887        1.63726
C         -2.65648       -0.25648        2.34275
O         -1.95638        0.62615        1.84136
N         -3.23668       -0.00278        3.55099
C         -3.99211       -0.89164        4.41675
C         -3.16438       -1.48901        5.57074
C         -2.44327       -0.45913        6.45392
C         -3.34937        0.57904        7.10320
O         -4.00532       -2.31296        6.38308
H          0.80432        0.43807        0.95095
H          0.89605        0.92753       -0.74289
H          2.05326       -0.24998       -0.10408
H         -0.96460       -0.68779       -0.42438
H          0.26568       -1.29243       -1.51652
H         -0.30285       -3.13970       -0.11520
H          1.30401       -2.59848        0.31290
H          0.56022       -2.81598        2.41688
H         -0.04057       -1.18695        2.23844
H         -2.76202       -1.44496        0.56043
H         -3.92924       -1.89303        1.77114
H         -2.99844        0.91525        3.90886
H         -4.83335       -0.31259        4.81393
H         -4.44082       -1.70306        3.83701
H         -2.39982       -2.15140        5.15244
H         -1.92174       -0.99386        7.25762
H         -1.67643        0.05842        5.86593
H         -4.10784        0.11170        7.73768
H         -2.75484        1.24714        7.73514
H         -3.85400        1.19690        6.35505
H         -4.69813       -1.75850        6.77878

--Link1--
%chk=JID_4790.chk
%mem=8GB
%nprocshared=4
# B3LYP/6-311++G(d,p) empiricaldispersion=gd3bj scf=xqc pop=npa geom=check

CID_116242365_JID_4790_Energie_neutraal

0 1

--Link1--
%chk=JID_4790.chk
%mem=8GB
%nprocshared=4
# B3LYP/6-311++G(d,p) empiricaldispersion=gd3bj scf=xqc pop=npa geom=check

CID_116242365_JID_4790_Energie_kation

1 2

--Link1--
%chk=JID_4790.chk
%mem=8GB
%nprocshared=4
# B3LYP/6-311++G(d,p) empiricaldispersion=gd3bj scf=xqc pop=npa geom=check

CID_116242365_JID_4790_Energie_anion

-1 2
