%chk=JID_10742.chk
%mem=8GB
%nprocshared=4
# opt freq B3LYP/6-31G(d) empiricaldispersion=gd3bj scf=xqc

CID_79067095_JID_10742_neutraal

0 1
C          1.07211       -0.04318       -0.05418
C          1.07709       -1.53375       -0.36312
C          1.29262       -2.43559        0.82933
C          2.03531       -3.61375        0.67000
C          2.20305       -4.50516        1.73260
C          1.61222       -4.25120        2.97516
C          0.89302       -3.06219        3.14557
C          0.71991       -2.17428        2.07969
C          1.78094       -5.21545        4.11774
C          0.52921       -5.93783        4.69889
C         -0.07625       -7.24781        3.94434
C          1.02332       -8.01168        3.14693
C          2.05318       -8.72401        4.02299
C          1.37296       -9.74108        4.92725
C          0.33176       -9.08469        5.82021
C         -0.66960       -8.22350        5.03838
N         -1.26539       -6.91264        3.06374
C         -1.19352       -5.67921        2.28802
C         -1.72983       -7.97530        2.16007
O          0.85593       -6.21122        6.07919
H          0.20906        0.24235        0.55525
H          1.01894        0.53186       -0.98454
H          1.98142        0.25507        0.47824
H          0.12898       -1.81125       -0.83902
H          1.86935       -1.71573       -1.10022
H          2.48780       -3.85099       -0.29052
H          2.78939       -5.40704        1.57245
H          0.44061       -2.82823        4.10745
H          0.12249       -1.28126        2.24470
H          2.56666       -5.93957        3.88075
H          2.23612       -4.62727        4.93003
H         -0.28317       -5.21070        4.79777
H          0.57719       -8.79904        2.52850
H          1.52528       -7.34615        2.43876
H          2.62713       -8.01529        4.62597
H          2.77441       -9.24143        3.37937
H          2.12250      -10.24781        5.54558
H          0.89326      -10.51465        4.31474
H          0.83403       -8.50450        6.59804
H         -0.21993       -9.86573        6.35849
H         -1.28905       -7.65506        5.74531
H         -1.35901       -8.94221        4.58370
H         -0.35357       -5.68555        1.59019
H         -2.10503       -5.54067        1.69222
H         -1.16400       -4.80036        2.93104
H         -1.08700       -8.07565        1.27759
H         -1.80763       -8.95582        2.63478
H         -2.74081       -7.74276        1.80359
H          1.73261       -6.62870        6.10567

--Link1--
%chk=JID_10742.chk
%mem=8GB
%nprocshared=4
# B3LYP/6-311++G(d,p) empiricaldispersion=gd3bj scf=xqc pop=npa geom=check

CID_79067095_JID_10742_Energie_neutraal

0 1

--Link1--
%chk=JID_10742.chk
%mem=8GB
%nprocshared=4
# B3LYP/6-311++G(d,p) empiricaldispersion=gd3bj scf=xqc pop=npa geom=check

CID_79067095_JID_10742_Energie_kation

1 2

--Link1--
%chk=JID_10742.chk
%mem=8GB
%nprocshared=4
# B3LYP/6-311++G(d,p) empiricaldispersion=gd3bj scf=xqc pop=npa geom=check

CID_79067095_JID_10742_Energie_anion

-1 2
