%chk=JID_9862.chk
%mem=8GB
%nprocshared=4
# opt freq B3LYP/6-31G(d) empiricaldispersion=gd3bj scf=xqc

CID_79042696_JID_9862_neutraal

0 1
C          1.01606        0.08164       -0.05547
C          0.59992        0.71773       -1.38499
C         -0.04013        2.12350       -1.18966
C          1.02688        3.18162       -0.87364
C          2.18949        3.13145       -1.86363
C          2.75274        1.72022       -2.00116
N          1.72507        0.73686       -2.34237
N         -0.78591        2.52140       -2.39042
C         -2.10043        2.29244       -2.68255
O         -2.47104        2.41901       -3.85093
C         -3.07491        1.94717       -1.57040
C         -3.04687        0.50213       -1.13532
C         -3.09221       -0.53858       -2.07562
C         -3.06698       -1.87849       -1.67467
C         -3.01934       -2.18378       -0.31524
C         -3.00274       -1.15798        0.63243
C         -3.02211        0.17622        0.22641
O         -3.09556       -2.78206       -2.70091
C         -3.01202       -4.15730       -2.35049
H          1.43799       -0.91639       -0.21834
H          0.14764       -0.03329        0.60147
H          1.75895        0.67678        0.48374
H         -0.15335        0.05011       -1.81914
H         -0.74032        2.08946       -0.35050
H          1.41550        3.01521        0.13848
H          0.58471        4.18520       -0.87907
H          2.98175        3.81211       -1.53113
H          1.85873        3.49340       -2.84475
H          3.26729        1.42634       -1.07941
H          3.51668        1.71317       -2.78689
H          1.35321        0.94732       -3.26933
H         -0.24686        2.70628       -3.22745
H         -2.88680        2.62075       -0.72598
H         -4.08747        2.18414       -1.92077
H         -3.14092       -0.31306       -3.14054
H         -3.00355       -3.20816        0.04079
H         -2.97778       -1.40169        1.69172
H         -3.01547        0.95816        0.98270
H         -2.07524       -4.37628       -1.82726
H         -3.87862       -4.46597       -1.75664
H         -3.01925       -4.73961       -3.27692

--Link1--
%chk=JID_9862.chk
%mem=8GB
%nprocshared=4
# B3LYP/6-311++G(d,p) empiricaldispersion=gd3bj scf=xqc pop=npa geom=check

CID_79042696_JID_9862_Energie_neutraal

0 1

--Link1--
%chk=JID_9862.chk
%mem=8GB
%nprocshared=4
# B3LYP/6-311++G(d,p) empiricaldispersion=gd3bj scf=xqc pop=npa geom=check

CID_79042696_JID_9862_Energie_kation

1 2

--Link1--
%chk=JID_9862.chk
%mem=8GB
%nprocshared=4
# B3LYP/6-311++G(d,p) empiricaldispersion=gd3bj scf=xqc pop=npa geom=check

CID_79042696_JID_9862_Energie_anion

-1 2
