%chk=JID_8655.chk
%mem=8GB
%nprocshared=4
# opt freq B3LYP/6-31G(d) empiricaldispersion=gd3bj scf=xqc

CID_115266197_JID_8655_neutraal

0 1
C          0.99255       -0.07008        0.07095
N          0.60709       -1.20948       -0.75420
C         -0.34258       -2.21557       -0.24051
C         -1.68516       -2.22252       -0.95313
N         -2.79894       -2.22830       -1.54431
C          1.22548       -1.48279       -1.96484
C          2.29225       -0.74162       -2.44238
C          2.84544       -1.06183       -3.67857
N          2.31765       -2.04438       -4.42940
C          1.29959       -2.72064       -3.89214
N          0.74901       -2.50561       -2.69068
N          3.96397       -0.31325       -4.15481
C          4.10381       -0.42167       -5.61084
C          5.06753        0.02888       -3.42283
C          5.48463       -0.55325       -2.24397
N          6.65114        0.05043       -1.85127
C          6.98514        1.02277       -2.75513
C          6.02345        1.02865       -3.74251
H          0.30712        0.05296        0.91638
H          0.95678        0.86271       -0.50221
H          1.99975       -0.20993        0.47739
H          0.09927       -3.21948       -0.28421
H         -0.53795       -2.02774        0.82259
H          2.70201        0.08858       -1.88409
H          0.87670       -3.52370       -4.48566
H          4.77061        0.34579       -6.01912
H          4.51238       -1.39921       -5.89389
H          3.14256       -0.27472       -6.11960
H          5.07413       -1.36828       -1.66388
H          7.18664       -0.19384       -1.02823
H          7.87641        1.62137       -2.62353
H          6.01480        1.69442       -4.59469

--Link1--
%chk=JID_8655.chk
%mem=8GB
%nprocshared=4
# B3LYP/6-311++G(d,p) empiricaldispersion=gd3bj scf=xqc pop=npa geom=check

CID_115266197_JID_8655_Energie_neutraal

0 1

--Link1--
%chk=JID_8655.chk
%mem=8GB
%nprocshared=4
# B3LYP/6-311++G(d,p) empiricaldispersion=gd3bj scf=xqc pop=npa geom=check

CID_115266197_JID_8655_Energie_kation

1 2

--Link1--
%chk=JID_8655.chk
%mem=8GB
%nprocshared=4
# B3LYP/6-311++G(d,p) empiricaldispersion=gd3bj scf=xqc pop=npa geom=check

CID_115266197_JID_8655_Energie_anion

-1 2
