%chk=JID_5544.chk
%mem=8GB
%nprocshared=4
# opt freq B3LYP/6-31G(d) empiricaldispersion=gd3bj scf=xqc

CID_64160607_JID_5544_neutraal

0 1
C          1.07752       -0.03858       -0.05002
C          0.54695        0.33332       -1.45107
C          0.87312        1.83778       -1.64533
C          0.14976        2.48985       -2.81730
C          0.87758        2.35187       -4.14500
C          1.54014        1.00439       -4.39331
C          0.75148       -0.19960       -3.87808
N          1.09417       -0.55751       -2.49432
C          0.90812       -2.01138       -2.26081
C         -0.48334       -2.72052       -2.42943
C         -1.59162       -2.21688       -1.49487
C         -2.59182       -3.36877       -1.37813
C         -1.80767       -4.64292       -1.68561
C         -0.37648       -4.19330       -1.97350
N         -0.95964       -2.68730       -3.82713
H          0.71802       -1.01280        0.29064
H          0.74073        0.68414        0.70216
H          2.17325       -0.04955       -0.03246
H         -0.54363        0.24492       -1.42646
H          0.54957        2.37604       -0.74391
H          1.95685        1.99620       -1.71572
H          0.03008        3.56127       -2.61195
H         -0.86730        2.08803       -2.90181
H          1.64563        3.13183       -4.22254
H          0.16167        2.55752       -4.95080
H          2.55059        1.00121       -3.96372
H          1.68674        0.89813       -5.47618
H          1.04560       -1.02517       -4.53916
H         -0.32716       -0.05580       -4.01069
H          1.60890       -2.52352       -2.93837
H          1.31622       -2.26800       -1.27682
H         -1.18941       -2.00439       -0.49820
H         -2.08398       -1.30834       -1.85672
H         -3.40767       -3.24674       -2.09983
H         -3.04257       -3.40071       -0.38084
H         -2.23794       -5.14868       -2.55748
H         -1.83958       -5.35022       -0.85052
H          0.11151       -4.83855       -2.71258
H          0.20851       -4.26678       -1.04739
H         -0.26721       -3.12907       -4.43065
H         -1.81666       -3.22649       -3.93172

--Link1--
%chk=JID_5544.chk
%mem=8GB
%nprocshared=4
# B3LYP/6-311++G(d,p) empiricaldispersion=gd3bj scf=xqc pop=npa geom=check

CID_64160607_JID_5544_Energie_neutraal

0 1

--Link1--
%chk=JID_5544.chk
%mem=8GB
%nprocshared=4
# B3LYP/6-311++G(d,p) empiricaldispersion=gd3bj scf=xqc pop=npa geom=check

CID_64160607_JID_5544_Energie_kation

1 2

--Link1--
%chk=JID_5544.chk
%mem=8GB
%nprocshared=4
# B3LYP/6-311++G(d,p) empiricaldispersion=gd3bj scf=xqc pop=npa geom=check

CID_64160607_JID_5544_Energie_anion

-1 2
