%chk=JID_7773.chk
%mem=8GB
%nprocshared=4
# opt freq B3LYP/6-31G(d) empiricaldispersion=gd3bj scf=xqc

CID_114988513_JID_7773_neutraal

0 1
C         -2.36100       -0.68600       -0.40100
C         -1.09261       -1.47847       -0.12205
C          0.12060       -0.61516       -0.31865
C          0.01023        0.77939       -0.35171
C          1.13751        1.57252       -0.56977
C          2.39449        0.98357       -0.71967
C          2.52529       -0.40714       -0.63743
C          1.38635       -1.20386       -0.45407
C          3.83819       -1.08124       -0.80900
O          3.88206       -2.10899       -1.48061
C          5.02805       -0.53561       -0.17755
C          5.14427        0.37381        0.85662
N          6.48091        0.52651        1.09139
N          7.25085       -0.22259        0.28963
C          6.36921       -0.88106       -0.46713
O         -1.17735        1.44901       -0.22581
C         -2.25786        0.66413        0.28796
H         -3.23919       -1.23860       -0.05150
H         -2.46593       -0.53569       -1.48301
H         -1.09934       -1.84134        0.91293
H         -1.05588       -2.34975       -0.78595
H          1.03200        2.65297       -0.63005
H          3.25399        1.61823       -0.91855
H          1.48761       -2.28806       -0.42721
H          4.41478        0.90656        1.45006
H          6.93642        1.11455        1.78235
H          6.72908       -1.58657       -1.20682
H         -3.17815        1.23309        0.11857
H         -2.13757        0.55643        1.37320

--Link1--
%chk=JID_7773.chk
%mem=8GB
%nprocshared=4
# B3LYP/6-311++G(d,p) empiricaldispersion=gd3bj scf=xqc pop=npa geom=check

CID_114988513_JID_7773_Energie_neutraal

0 1

--Link1--
%chk=JID_7773.chk
%mem=8GB
%nprocshared=4
# B3LYP/6-311++G(d,p) empiricaldispersion=gd3bj scf=xqc pop=npa geom=check

CID_114988513_JID_7773_Energie_kation

1 2

--Link1--
%chk=JID_7773.chk
%mem=8GB
%nprocshared=4
# B3LYP/6-311++G(d,p) empiricaldispersion=gd3bj scf=xqc pop=npa geom=check

CID_114988513_JID_7773_Energie_anion

-1 2
