%chk=JID_9656.chk
%mem=8GB
%nprocshared=4
# opt freq B3LYP/6-31G(d) empiricaldispersion=gd3bj scf=xqc

CID_116697138_JID_9656_neutraal

0 1
C          1.06902        0.06800        0.02474
C          0.40548       -1.01787       -0.81477
C          1.19677       -2.34914       -0.83566
C          0.17383       -3.52194       -0.77379
N          0.81631       -4.83440       -0.82027
C          1.76587       -4.98319       -1.92420
C          2.76214       -3.81576       -1.97681
N          2.08787       -2.49702       -2.02352
C          3.09652       -1.44428       -2.12960
C          0.13200       -5.92050       -0.24418
O         -1.00321       -5.75171        0.21280
C          0.81507       -7.21814       -0.16108
N          2.12508       -7.38285       -0.15765
C          2.44861       -8.73252       -0.00832
C          1.35054       -9.56613        0.10707
S         -0.10035       -8.66031        0.03471
C          3.82679       -9.21106        0.02645
O          4.16809      -10.37740        0.17151
O          4.76491       -8.24705       -0.12381
H          1.17316       -0.25796        1.06484
H          0.45203        0.97252        0.01907
H          2.05914        0.34048       -0.34546
H         -0.59506       -1.18042       -0.39404
H          0.24140       -0.65021       -1.83517
H          1.81230       -2.41255        0.07346
H         -0.53012       -3.46992       -1.61474
H         -0.41003       -3.43943        0.15083
H          1.17341       -5.01163       -2.84813
H          2.31394       -5.92315       -1.88764
H          3.38264       -3.94422       -2.87215
H          3.42695       -3.86987       -1.10423
H          2.63395       -0.47868       -2.35348
H          3.69889       -1.35342       -1.21902
H          3.77579       -1.64251       -2.96713
H          1.33841      -10.64014        0.23435
H          5.60948       -8.73575       -0.06602

--Link1--
%chk=JID_9656.chk
%mem=8GB
%nprocshared=4
# B3LYP/6-311++G(d,p) empiricaldispersion=gd3bj scf=xqc pop=npa geom=check

CID_116697138_JID_9656_Energie_neutraal

0 1

--Link1--
%chk=JID_9656.chk
%mem=8GB
%nprocshared=4
# B3LYP/6-311++G(d,p) empiricaldispersion=gd3bj scf=xqc pop=npa geom=check

CID_116697138_JID_9656_Energie_kation

1 2

--Link1--
%chk=JID_9656.chk
%mem=8GB
%nprocshared=4
# B3LYP/6-311++G(d,p) empiricaldispersion=gd3bj scf=xqc pop=npa geom=check

CID_116697138_JID_9656_Energie_anion

-1 2
