%chk=JID_4836.chk
%mem=8GB
%nprocshared=4
# opt freq B3LYP/6-31G(d) empiricaldispersion=gd3bj scf=xqc

CID_131439941_JID_4836_neutraal

0 1
C         -1.74500       -1.59100        0.00800
C         -0.54964       -0.70850        0.22547
C         -0.52222        0.63464       -0.18489
C          0.61372        1.44801        0.01845
C          1.74781        0.88841        0.64092
C          1.71255       -0.44505        1.07158
C          0.57829       -1.23273        0.86720
S          3.25118        1.82423        0.94826
C          4.32021        1.05219       -0.29332
C          0.60138        2.85669       -0.41508
C         -0.10174        3.79763        0.23636
C         -0.14178        5.23434       -0.16088
N         -1.51839        5.62920       -0.42192
O         -1.60689        1.18720       -0.82200
H         -2.57614       -1.26232        0.63985
H         -2.05264       -1.56626       -1.04248
H         -1.52595       -2.63499        0.25640
H          2.57034       -0.88256        1.57794
H          0.58765       -2.26474        1.21235
H          4.48005       -0.00480       -0.06382
H          3.88009        1.14450       -1.29009
H          5.29062        1.55571       -0.29366
H          1.20214        3.09205       -1.28752
H         -0.68451        3.52554        1.11389
H          0.26200        5.84567        0.65270
H          0.46843        5.42220       -1.05114
H         -1.52585        6.58138       -0.78079
H         -1.88278        5.04079       -1.17098
H         -2.40071        0.67669       -0.60379

--Link1--
%chk=JID_4836.chk
%mem=8GB
%nprocshared=4
# B3LYP/6-311++G(d,p) empiricaldispersion=gd3bj scf=xqc pop=npa geom=check

CID_131439941_JID_4836_Energie_neutraal

0 1

--Link1--
%chk=JID_4836.chk
%mem=8GB
%nprocshared=4
# B3LYP/6-311++G(d,p) empiricaldispersion=gd3bj scf=xqc pop=npa geom=check

CID_131439941_JID_4836_Energie_kation

1 2

--Link1--
%chk=JID_4836.chk
%mem=8GB
%nprocshared=4
# B3LYP/6-311++G(d,p) empiricaldispersion=gd3bj scf=xqc pop=npa geom=check

CID_131439941_JID_4836_Energie_anion

-1 2
