%chk=JID_9935.chk
%mem=8GB
%nprocshared=4
# opt freq B3LYP/6-31G(d) empiricaldispersion=gd3bj scf=xqc

CID_81722614_JID_9935_neutraal

0 1
C          2.11600        0.05100        0.77100
C          1.48437       -0.77077       -0.35314
C          0.02608       -1.15642       -0.08641
C         -0.90039       -0.05980        0.36762
C         -0.63377        1.29964        0.39492
C          0.60426        2.00613       -0.06351
C          1.85350        1.56216        0.69762
S         -1.92123        2.20276        1.07013
C         -2.89395        0.81379        1.25972
C         -2.21412       -0.32628        0.88585
C         -4.19893        0.89314        1.89225
O         -4.41405        0.32221        2.96234
N         -5.22843        1.60344        1.24882
C         -5.07307        2.29217       -0.02962
C         -6.38174        2.33570       -0.80376
C         -7.44232        3.06960       -0.00810
C         -7.63947        2.41521        1.33557
O         -8.73895        2.46167        1.89266
C         -6.40592        1.90287        2.06679
H          3.20259       -0.10108        0.75584
H          1.77796       -0.33235        1.74212
H          1.57939       -0.25083       -1.31325
H          2.05392       -1.70254       -0.46463
H          0.01738       -1.94153        0.68192
H         -0.38813       -1.61002       -0.99570
H          0.50186        3.09321        0.04638
H          0.73421        1.83342       -1.13898
H          1.82164        1.95639        1.72158
H          2.71882        2.04109        0.22116
H         -2.63816       -1.31899        0.99100
H         -4.32583        1.78306       -0.64498
H         -4.71514        3.30690        0.17891
H         -6.71784        1.31320       -1.01675
H         -6.22735        2.83861       -1.76473
H         -8.39176        3.05191       -0.55328
H         -7.15581        4.11355        0.15840
H         -6.10568        2.67548        2.78414
H         -6.69680        1.00418        2.62165

--Link1--
%chk=JID_9935.chk
%mem=8GB
%nprocshared=4
# B3LYP/6-311++G(d,p) empiricaldispersion=gd3bj scf=xqc pop=npa geom=check

CID_81722614_JID_9935_Energie_neutraal

0 1

--Link1--
%chk=JID_9935.chk
%mem=8GB
%nprocshared=4
# B3LYP/6-311++G(d,p) empiricaldispersion=gd3bj scf=xqc pop=npa geom=check

CID_81722614_JID_9935_Energie_kation

1 2

--Link1--
%chk=JID_9935.chk
%mem=8GB
%nprocshared=4
# B3LYP/6-311++G(d,p) empiricaldispersion=gd3bj scf=xqc pop=npa geom=check

CID_81722614_JID_9935_Energie_anion

-1 2
