%chk=JID_8278.chk
%mem=8GB
%nprocshared=4
# opt freq B3LYP/6-31G(d) empiricaldispersion=gd3bj scf=xqc

CID_81926331_JID_8278_neutraal

0 1
C          2.54100        1.06400        0.00800
C          1.24937        0.35465        0.32273
C          0.08418        1.04888        0.74246
C         -1.09636        0.31011        1.01606
C         -1.09393       -1.08612        0.87059
C          0.05532       -1.75822        0.46874
C          1.21751       -1.04399        0.20003
C         -2.38284        0.98250        1.42208
C          0.07581        2.56953        0.83126
N         -0.62401        3.13585       -0.31925
C         -0.36911        4.55854       -0.52904
C          0.99274        4.89580       -1.14844
C          1.27264        4.25870       -2.51014
O          0.46488        4.82379       -3.53879
C         -0.67782        4.05247       -3.90534
C         -0.42638        3.22006       -5.17265
C          0.61556        2.12152       -4.95773
C         -1.73876        2.59871       -5.65340
H          2.38451        1.82177       -0.76493
H          2.94522        1.53224        0.91093
H          3.29993        0.37089       -0.37087
H         -1.99684       -1.66047        1.06546
H          0.04261       -2.83931        0.36021
H          2.10465       -1.58967       -0.11543
H         -2.22568        1.63440        2.28640
H         -2.79080        1.56221        0.58875
H         -3.14178        0.24835        1.71425
H         -0.41034        2.88272        1.76217
H          1.09965        2.94585        0.90352
H         -0.38963        2.59431       -1.14740
H         -1.15885        4.94813       -1.18126
H         -0.48135        5.09903        0.41913
H          1.04501        5.98660       -1.25637
H          1.79222        4.60943       -0.45578
H          2.30991        4.48831       -2.77904
H          1.19591        3.16836       -2.47630
H         -1.02819        3.42143       -3.08377
H         -1.47591        4.77516       -4.11060
H         -0.04495        3.88533       -5.95740
H          0.33567        1.46580       -4.12590
H          0.71812        1.50079       -5.85439
H          1.60090        2.54706       -4.74535
H         -2.48147        3.37452       -5.86714
H         -1.58519        2.02303       -6.57224
H         -2.15931        1.92559       -4.89818

--Link1--
%chk=JID_8278.chk
%mem=8GB
%nprocshared=4
# B3LYP/6-311++G(d,p) empiricaldispersion=gd3bj scf=xqc pop=npa geom=check

CID_81926331_JID_8278_Energie_neutraal

0 1

--Link1--
%chk=JID_8278.chk
%mem=8GB
%nprocshared=4
# B3LYP/6-311++G(d,p) empiricaldispersion=gd3bj scf=xqc pop=npa geom=check

CID_81926331_JID_8278_Energie_kation

1 2

--Link1--
%chk=JID_8278.chk
%mem=8GB
%nprocshared=4
# B3LYP/6-311++G(d,p) empiricaldispersion=gd3bj scf=xqc pop=npa geom=check

CID_81926331_JID_8278_Energie_anion

-1 2
