%chk=JID_2867.chk
%mem=8GB
%nprocshared=4
# opt freq B3LYP/6-31G(d) empiricaldispersion=gd3bj scf=xqc

CID_154207168_JID_2867_neutraal

0 1
C          1.05595       -0.07845        0.02677
C          0.63011       -1.40998        0.64314
C         -0.52954       -1.15396        1.64055
C         -0.90530       -2.42769        2.40793
C         -0.04742       -3.60875        1.93448
C          1.43069       -3.27912        2.18244
C          1.83427       -2.01955        1.40618
C         -0.26886       -3.81837        0.43480
C          0.12309       -2.53572       -0.29486
N         -0.02942       -2.56261       -1.58646
N          0.30308       -1.47847       -2.29934
O         -0.40759       -4.78802        2.63873
H          1.38231        0.62444        0.80276
H          0.23086        0.40261       -0.50914
H          1.89830       -0.20141       -0.66206
H         -1.41315       -0.78490        1.10373
H         -0.25228       -0.37269        2.35961
H         -0.77660       -2.27014        3.48650
H         -1.97161       -2.65100        2.27524
H          1.61478       -3.13642        3.25507
H          2.06660       -4.12501        1.89172
H          2.25586       -1.28787        2.10701
H          2.63605       -2.27445        0.70097
H          0.33561       -4.65139        0.05719
H         -1.31709       -4.05549        0.21827
H          1.29374       -1.51775       -2.55395
H         -0.17832       -1.51333       -3.20246
H         -0.27310       -4.62862        3.58885

--Link1--
%chk=JID_2867.chk
%mem=8GB
%nprocshared=4
# B3LYP/6-311++G(d,p) empiricaldispersion=gd3bj scf=xqc pop=npa geom=check

CID_154207168_JID_2867_Energie_neutraal

0 1

--Link1--
%chk=JID_2867.chk
%mem=8GB
%nprocshared=4
# B3LYP/6-311++G(d,p) empiricaldispersion=gd3bj scf=xqc pop=npa geom=check

CID_154207168_JID_2867_Energie_kation

1 2

--Link1--
%chk=JID_2867.chk
%mem=8GB
%nprocshared=4
# B3LYP/6-311++G(d,p) empiricaldispersion=gd3bj scf=xqc pop=npa geom=check

CID_154207168_JID_2867_Energie_anion

-1 2
