%chk=JID_3141.chk
%mem=8GB
%nprocshared=4
# opt freq B3LYP/6-31G(d) empiricaldispersion=gd3bj scf=xqc

CID_20307664_JID_3141_neutraal

0 1
C          1.08576       -0.02500       -0.04495
C          0.17698        1.19943       -0.09166
O          0.52445        2.18134        0.87964
C          1.70253        2.90495        0.54717
C          1.58056        3.57255       -0.83023
C          2.92169        4.23375       -1.20801
C          2.86185        4.98224       -2.54157
C          1.59781        5.76676       -2.72452
C          0.51738        5.64106       -1.93397
C          0.47196        4.65963       -0.78233
C         -0.71851        6.47029       -2.13514
C          1.20358        2.46479       -1.83099
O          0.05430        1.73974       -1.40246
H          0.73889       -0.78709       -0.75008
H          1.10844       -0.44864        0.96408
H          2.11836        0.21287       -0.31601
H         -0.82691        0.85730        0.18181
H          2.56789        2.23339        0.59397
H          1.85683        3.65644        1.33008
H          3.20677        4.94441       -0.41971
H          3.72453        3.48701       -1.25081
H          3.72046        5.66068       -2.60567
H          2.95646        4.27425       -3.37324
H          1.58607        6.47259       -3.55250
H         -0.51668        4.18491       -0.75225
H          0.56342        5.24304        0.14379
H         -1.57736        5.82605       -2.34929
H         -0.93509        7.05212       -1.23344
H         -0.61218        7.17285       -2.96831
H          2.03423        1.76506       -1.98090
H          0.96718        2.87547       -2.81785

--Link1--
%chk=JID_3141.chk
%mem=8GB
%nprocshared=4
# B3LYP/6-311++G(d,p) empiricaldispersion=gd3bj scf=xqc pop=npa geom=check

CID_20307664_JID_3141_Energie_neutraal

0 1

--Link1--
%chk=JID_3141.chk
%mem=8GB
%nprocshared=4
# B3LYP/6-311++G(d,p) empiricaldispersion=gd3bj scf=xqc pop=npa geom=check

CID_20307664_JID_3141_Energie_kation

1 2

--Link1--
%chk=JID_3141.chk
%mem=8GB
%nprocshared=4
# B3LYP/6-311++G(d,p) empiricaldispersion=gd3bj scf=xqc pop=npa geom=check

CID_20307664_JID_3141_Energie_anion

-1 2
