%chk=JID_3452.chk
%mem=8GB
%nprocshared=4
# opt freq B3LYP/6-31G(d) empiricaldispersion=gd3bj scf=xqc

CID_19813751_JID_3452_neutraal

0 1
C          2.49200        0.00400       -0.01400
C          0.99244       -0.00951       -0.05589
C          0.30423       -1.21799       -0.20549
C         -1.09171       -1.24133       -0.21299
C         -1.83220       -0.05488       -0.06120
C         -1.13405        1.15363        0.10242
C          0.26342        1.17304        0.11006
C         -3.36643       -0.07514       -0.06284
N         -3.94421       -0.73657       -1.26771
C         -5.41204       -0.68232       -1.26613
C         -3.46588       -0.10158       -2.50346
S         -3.85663       -0.71750        1.55814
O         -4.60443       -2.00857        1.55312
H          2.84054       -0.24799        0.99228
H          2.90520       -0.71794       -0.72624
H          2.88535        0.98938       -0.28506
H          0.85054       -2.15219       -0.31778
H         -1.60779       -2.19320       -0.33919
H         -1.66908        2.09240        0.22882
H          0.78150        2.12008        0.24664
H         -3.70091        0.97102       -0.03317
H         -5.78523        0.34636       -1.19986
H         -5.81237       -1.12823       -2.18468
H         -5.85020       -1.26374       -0.45165
H         -3.70482        0.96786       -2.53605
H         -2.38581       -0.22085       -2.63361
H         -3.91919       -0.57846       -3.38067

--Link1--
%chk=JID_3452.chk
%mem=8GB
%nprocshared=4
# B3LYP/6-311++G(d,p) empiricaldispersion=gd3bj scf=xqc pop=npa geom=check

CID_19813751_JID_3452_Energie_neutraal

0 1

--Link1--
%chk=JID_3452.chk
%mem=8GB
%nprocshared=4
# B3LYP/6-311++G(d,p) empiricaldispersion=gd3bj scf=xqc pop=npa geom=check

CID_19813751_JID_3452_Energie_kation

1 2

--Link1--
%chk=JID_3452.chk
%mem=8GB
%nprocshared=4
# B3LYP/6-311++G(d,p) empiricaldispersion=gd3bj scf=xqc pop=npa geom=check

CID_19813751_JID_3452_Energie_anion

-1 2
