%chk=JID_4531.chk
%mem=8GB
%nprocshared=4
# opt freq B3LYP/6-31G(d) empiricaldispersion=gd3bj scf=xqc

CID_43537936_JID_4531_neutraal

0 1
C          1.03645        0.07559        0.05439
C         -0.46297        0.28934       -0.14149
C         -1.02959        1.26239        0.88523
O         -0.83819        0.62069       -1.48323
C         -0.14346        1.67603       -2.14175
C         -0.81173        3.04128       -1.95771
O          0.10116        4.11929       -2.19430
C          1.04866        4.29202       -1.13740
C          0.85558        5.62528       -0.41880
C         -0.59354        5.91904       -0.03735
C          1.76151        5.62559        0.79344
O          2.86103        6.16216        0.82220
O          1.23115        4.88461        1.80710
C          2.06176        4.78898        2.96515
H          1.58862        1.02063        0.05114
H          1.44598       -0.55039       -0.74507
H          1.23370       -0.41233        1.01470
H         -0.94889       -0.67667        0.04277
H         -2.08638        1.46651        0.68535
H         -0.93908        0.85352        1.89708
H         -0.49967        2.21846        0.87221
H          0.91957        1.68722       -1.89106
H         -0.16918        1.44109       -3.21292
H         -1.62317        3.13682       -2.68825
H         -1.28286        3.16188       -0.97984
H          1.01621        3.45829       -0.42704
H          2.04643        4.26685       -1.59167
H          1.18143        6.43960       -1.07823
H         -1.03325        5.10383        0.54707
H         -0.65692        6.83000        0.56784
H         -1.21102        6.06649       -0.92934
H          3.00358        4.28880        2.71918
H          2.24530        5.78071        3.38931
H          1.53441        4.18531        3.70921

--Link1--
%chk=JID_4531.chk
%mem=8GB
%nprocshared=4
# B3LYP/6-311++G(d,p) empiricaldispersion=gd3bj scf=xqc pop=npa geom=check

CID_43537936_JID_4531_Energie_neutraal

0 1

--Link1--
%chk=JID_4531.chk
%mem=8GB
%nprocshared=4
# B3LYP/6-311++G(d,p) empiricaldispersion=gd3bj scf=xqc pop=npa geom=check

CID_43537936_JID_4531_Energie_kation

1 2

--Link1--
%chk=JID_4531.chk
%mem=8GB
%nprocshared=4
# B3LYP/6-311++G(d,p) empiricaldispersion=gd3bj scf=xqc pop=npa geom=check

CID_43537936_JID_4531_Energie_anion

-1 2
