%chk=JID_10246.chk
%mem=8GB
%nprocshared=4
# opt freq B3LYP/6-31G(d) empiricaldispersion=gd3bj scf=xqc

CID_119162912_JID_10246_neutraal

0 1
C          0.99390        0.03959        0.09163
C          0.88217        0.79650        1.41811
C          0.25058        2.26224        1.22473
C         -0.41018        2.02652        2.61865
C         -0.45056        0.53450        2.14845
O         -0.69050       -0.22763        3.33702
C         -1.58100        0.59348        4.13435
C         -1.75947        1.90318        3.31233
N          1.20673        3.33805        1.25900
C          1.93907        3.56911        0.12592
N          3.20484        3.79940        0.04150
C          4.00738        3.87188        1.24928
N          1.26312        3.60259       -1.05715
C          0.10012        4.44907       -1.29206
C          0.40100        5.92534       -1.53028
C          0.95745        6.72083       -0.36809
C          1.43347        7.98399       -1.06157
O          1.75580        7.63043       -2.41692
C          1.40511        6.25088       -2.61803
C          2.13784        0.57152        2.25963
H          0.09918        0.16621       -0.52768
H          1.12801       -1.03367        0.26498
H          1.84980        0.39910       -0.48963
H         -0.49187        2.35398        0.42378
H          0.30550        2.25507        3.42609
H         -1.25579        0.30591        1.42816
H         -2.52973        0.07503        4.29504
H         -1.08915        0.78788        5.09225
H         -2.57947        1.80440        2.59034
H         -1.98314        2.75308        3.96365
H          1.78619        3.30921        2.08863
H          3.61609        4.61530        1.95164
H          4.08288        2.90020        1.74346
H          5.02262        4.18283        0.98349
H          1.94888        3.68323       -1.80295
H         -0.40691        4.05403       -2.18047
H         -0.61948        4.36461       -0.47092
H         -0.55222        6.40000       -1.80825
H          0.22261        6.92460        0.41588
H          1.81539        6.22526        0.09351
H          2.31142        8.42075       -0.57700
H          0.64198        8.73996       -1.09534
H          2.32754        5.66734       -2.54158
H          0.99287        6.12568       -3.62335
H          2.23941       -0.48742        2.52262
H          3.03436        0.85666        1.70105
H          2.13613        1.13972        3.19372

--Link1--
%chk=JID_10246.chk
%mem=8GB
%nprocshared=4
# B3LYP/6-311++G(d,p) empiricaldispersion=gd3bj scf=xqc pop=npa geom=check

CID_119162912_JID_10246_Energie_neutraal

0 1

--Link1--
%chk=JID_10246.chk
%mem=8GB
%nprocshared=4
# B3LYP/6-311++G(d,p) empiricaldispersion=gd3bj scf=xqc pop=npa geom=check

CID_119162912_JID_10246_Energie_kation

1 2

--Link1--
%chk=JID_10246.chk
%mem=8GB
%nprocshared=4
# B3LYP/6-311++G(d,p) empiricaldispersion=gd3bj scf=xqc pop=npa geom=check

CID_119162912_JID_10246_Energie_anion

-1 2
