%chk=JID_10051.chk
%mem=8GB
%nprocshared=4
# opt freq B3LYP/6-31G(d) empiricaldispersion=gd3bj scf=xqc

CID_62819012_JID_10051_neutraal

0 1
C          1.07174       -0.04480       -0.05336
C          0.63886        1.43079        0.09981
C          0.86104        2.15133       -1.24154
C         -0.86437        1.33938        0.47775
O         -1.32144        1.19679        1.60444
O         -1.69976        1.32749       -0.58281
N          1.38589        2.12771        1.20477
C          2.74937        1.67907        1.48195
C          0.90551        3.36502        1.62963
O         -0.02614        3.93912        1.06103
C          1.43432        3.95819        2.92097
C          0.75066        3.31569        4.12472
N          1.28094        2.01396        4.48276
C          2.49534        1.77037        5.06583
C          2.55474        0.39581        5.18547
N          1.39834       -0.19050        4.71482
C          0.64423        0.81360        4.32162
N          3.65103       -0.39712        5.69539
O          3.51181       -1.62660        5.73118
O          4.66630        0.22458        6.04524
H          0.44856       -0.56498       -0.79102
H          0.97033       -0.58982        0.89275
H          2.11050       -0.13558       -0.38842
H          0.41474        1.59563       -2.07439
H          0.41553        3.15087       -1.25278
H          1.92961        2.26431       -1.45559
H         -2.59033        1.28368       -0.17596
H          3.28038        2.31383        2.18721
H          2.72483        0.66382        1.88494
H          3.31910        1.69291        0.54770
H          2.52259        3.93525        2.98346
H          1.17225        5.02453        2.90123
H          0.88192        3.95182        5.00818
H         -0.32737        3.20446        3.95822
H          3.19864        2.55114        5.32158
H         -0.35199        0.72646        3.90314

--Link1--
%chk=JID_10051.chk
%mem=8GB
%nprocshared=4
# B3LYP/6-311++G(d,p) empiricaldispersion=gd3bj scf=xqc pop=npa geom=check

CID_62819012_JID_10051_Energie_neutraal

0 1

--Link1--
%chk=JID_10051.chk
%mem=8GB
%nprocshared=4
# B3LYP/6-311++G(d,p) empiricaldispersion=gd3bj scf=xqc pop=npa geom=check

CID_62819012_JID_10051_Energie_kation

1 2

--Link1--
%chk=JID_10051.chk
%mem=8GB
%nprocshared=4
# B3LYP/6-311++G(d,p) empiricaldispersion=gd3bj scf=xqc pop=npa geom=check

CID_62819012_JID_10051_Energie_anion

-1 2
