%chk=JID_7545.chk
%mem=8GB
%nprocshared=4
# opt freq B3LYP/6-31G(d) empiricaldispersion=gd3bj scf=xqc

CID_102318590_JID_7545_neutraal

0 1
C          0.93848       -0.06685       -0.04179
C          0.47208       -1.41941        0.51258
C          0.70088       -2.51473       -0.52306
O          0.51787       -2.43381       -1.72651
N          1.11312       -3.66016        0.11304
C          1.20297       -3.52351        1.52922
C          1.31291       -1.97332        1.73823
C          2.78788       -1.49755        1.66403
C          0.75513       -1.51073        3.09666
C          2.29978       -4.38320        2.14170
C          3.42875       -4.78987        1.40637
C          4.42841       -5.56934        1.99394
C          4.32185       -5.95339        3.32770
C          3.21875       -5.55570        4.07733
C          2.21937       -4.77624        3.49097
O         -0.04341       -4.01347        1.99518
C         -1.04671       -1.32978        0.76007
H          0.91677        0.70598        0.73372
H          0.29223        0.26842       -0.86202
H          1.95038       -0.11748       -0.45770
H          1.21661       -4.52284       -0.40008
H          2.86144       -0.40916        1.76670
H          3.38735       -1.91839        2.47888
H          3.26288       -1.77923        0.71827
H         -0.26440       -1.86344        3.27903
H          1.37406       -1.87777        3.92256
H          0.74204       -0.41674        3.15883
H          3.55317       -4.49082        0.36719
H          5.29445       -5.87153        1.40998
H          5.10131       -6.55793        3.78430
H          3.13595       -5.84952        5.12079
H          1.36768       -4.47350        4.09903
H         -0.05785       -4.95483        1.75761
H         -1.28547       -0.55362        1.49489
H         -1.57643       -1.07413       -0.16612
H         -1.48023       -2.27193        1.10510

--Link1--
%chk=JID_7545.chk
%mem=8GB
%nprocshared=4
# B3LYP/6-311++G(d,p) empiricaldispersion=gd3bj scf=xqc pop=npa geom=check

CID_102318590_JID_7545_Energie_neutraal

0 1

--Link1--
%chk=JID_7545.chk
%mem=8GB
%nprocshared=4
# B3LYP/6-311++G(d,p) empiricaldispersion=gd3bj scf=xqc pop=npa geom=check

CID_102318590_JID_7545_Energie_kation

1 2

--Link1--
%chk=JID_7545.chk
%mem=8GB
%nprocshared=4
# B3LYP/6-311++G(d,p) empiricaldispersion=gd3bj scf=xqc pop=npa geom=check

CID_102318590_JID_7545_Energie_anion

-1 2
