%chk=JID_9549.chk
%mem=8GB
%nprocshared=4
# opt freq B3LYP/6-31G(d) empiricaldispersion=gd3bj scf=xqc

CID_119172283_JID_9549_neutraal

0 1
C          1.08615       -0.03217       -0.03929
N          0.80029        0.34535       -1.41323
C          1.35096       -0.55233       -2.45006
C          0.50148       -1.76562       -2.80398
O          0.68194       -2.49057       -3.76985
O         -0.47072       -2.01021       -1.91178
C         -0.12390        1.37858       -1.61543
O         -0.49546        2.12621       -0.71337
C         -0.73451        1.56729       -2.95234
C          0.10661        1.93877       -4.01544
C         -0.40464        2.10853       -5.30076
C         -1.76681        1.94983       -5.52611
C         -2.62190        1.66112       -4.45976
C         -2.12746        1.47897       -3.15580
S         -3.39110        1.35789       -1.88148
C         -3.06841       -0.27382       -1.13794
C         -3.58192       -1.40102       -2.02109
O         -2.93957       -2.41810       -2.27905
N         -4.86843       -1.27433       -2.46417
H          0.69269       -1.03344        0.15475
H          0.64461        0.65584        0.68611
H          2.17078       -0.03762        0.10494
H          1.53099        0.00168       -3.36956
H          2.32224       -0.91571       -2.09484
H         -1.11116       -2.65417       -2.30367
H          1.16592        2.11606       -3.84142
H          0.25615        2.38008       -6.12064
H         -2.17389        2.09130       -6.52464
H         -3.69141        1.60948       -4.65629
H         -2.01114       -0.40528       -0.91888
H         -3.60575       -0.32603       -0.18492
H         -5.31715       -0.36576       -2.46136
H         -5.21639       -1.97994       -3.09948

--Link1--
%chk=JID_9549.chk
%mem=8GB
%nprocshared=4
# B3LYP/6-311++G(d,p) empiricaldispersion=gd3bj scf=xqc pop=npa geom=check

CID_119172283_JID_9549_Energie_neutraal

0 1

--Link1--
%chk=JID_9549.chk
%mem=8GB
%nprocshared=4
# B3LYP/6-311++G(d,p) empiricaldispersion=gd3bj scf=xqc pop=npa geom=check

CID_119172283_JID_9549_Energie_kation

1 2

--Link1--
%chk=JID_9549.chk
%mem=8GB
%nprocshared=4
# B3LYP/6-311++G(d,p) empiricaldispersion=gd3bj scf=xqc pop=npa geom=check

CID_119172283_JID_9549_Energie_anion

-1 2
