%chk=JID_9586.chk
%mem=8GB
%nprocshared=4
# opt freq B3LYP/6-31G(d) empiricaldispersion=gd3bj scf=xqc

CID_105985112_JID_9586_neutraal

0 1
C          2.62500       -0.32100        0.00300
C          1.96353        0.12355       -1.26216
C          1.46815       -0.75838       -2.20262
S          0.72250        0.01826       -3.51783
C          1.01248        1.57895       -2.85735
C          1.72126        1.49577       -1.66558
S          2.26191        2.85916       -0.71344
O          1.91340        4.06530       -1.42357
O          1.78664        2.58884        0.62499
N          3.95173        2.79147       -0.63542
C          4.72754        3.20354       -1.82578
C          5.00618        4.70672       -1.76163
C          6.06678        2.44361       -1.83354
C          5.96271        0.92003       -1.98720
C          5.28020        0.41605       -3.27165
C          5.99082        0.89363       -4.53791
C          5.22140       -1.11416       -3.25759
C          0.47138        2.76483       -3.59544
N         -0.76580        3.20896       -2.96761
H          3.52663        0.25660        0.21571
H          1.93454       -0.21478        0.84574
H          2.92066       -1.37405       -0.05746
H          1.50320       -1.83944       -2.17229
H          4.27112        3.18629        0.24958
H          4.17379        2.97831       -2.74247
H          5.55095        4.97234       -0.84854
H          5.60736        5.02589       -2.61972
H          4.08351        5.29313       -1.77197
H          6.70611        2.83906       -2.63208
H          6.60088        2.64580       -0.89489
H          6.98046        0.50978       -1.94130
H          5.43909        0.51084       -1.11604
H          4.24963        0.78302       -3.30237
H          7.04681        0.60328       -4.53440
H          5.52492        0.46167       -5.43028
H          5.93522        1.98173       -4.63861
H          4.69677       -1.47739       -2.36785
H          4.68670       -1.49081       -4.13602
H          6.22594       -1.55092       -3.25916
H          1.20221        3.57686       -3.63073
H          0.26406        2.51558       -4.64332
H         -1.11336        4.03077       -3.45610
H         -1.47280        2.48335       -3.06914

--Link1--
%chk=JID_9586.chk
%mem=8GB
%nprocshared=4
# B3LYP/6-311++G(d,p) empiricaldispersion=gd3bj scf=xqc pop=npa geom=check

CID_105985112_JID_9586_Energie_neutraal

0 1

--Link1--
%chk=JID_9586.chk
%mem=8GB
%nprocshared=4
# B3LYP/6-311++G(d,p) empiricaldispersion=gd3bj scf=xqc pop=npa geom=check

CID_105985112_JID_9586_Energie_kation

1 2

--Link1--
%chk=JID_9586.chk
%mem=8GB
%nprocshared=4
# B3LYP/6-311++G(d,p) empiricaldispersion=gd3bj scf=xqc pop=npa geom=check

CID_105985112_JID_9586_Energie_anion

-1 2
