%chk=JID_7042.chk
%mem=8GB
%nprocshared=4
# opt freq B3LYP/6-31G(d) empiricaldispersion=gd3bj scf=xqc

CID_107553408_JID_7042_neutraal

0 1
C         -1.09000        0.74600        0.20700
C         -1.07627       -0.73272       -0.09742
C          0.39833       -1.09764        0.02518
O          1.13870        0.11953       -0.22373
C          0.21523        1.19976       -0.39994
C          0.81703       -1.60795        1.40791
C          0.30708       -3.00723        1.75389
N          0.86214       -3.98909        0.83854
C          0.75484       -5.30943        1.24715
N          1.73156       -6.12023        0.82029
C          1.67823       -7.40998        1.19607
C          0.69238       -7.91900        1.99665
C         -0.26042       -7.00757        2.39518
N         -0.24901       -5.70546        2.03072
C         -1.38402       -7.41134        3.29498
O         -2.26993       -6.69870        3.73071
O         -1.34205       -8.72000        3.62855
H         -1.95692        1.26988       -0.20381
H         -1.07575        0.90166        1.29189
H         -1.40186       -0.88786       -1.13375
H         -1.74317       -1.31143        0.54597
H          0.68368       -1.81964       -0.74721
H          0.11252        1.38338       -1.47481
H          0.60944        2.10306        0.07363
H          1.91368       -1.59806        1.46972
H          0.47849       -0.90244        2.17740
H          0.61600       -3.22711        2.78430
H         -0.78779       -3.03542        1.72281
H          1.83478       -3.85982        0.57722
H          2.48307       -8.03607        0.82191
H          0.67795       -8.95881        2.29042
H         -2.12365       -8.82570        4.21309

--Link1--
%chk=JID_7042.chk
%mem=8GB
%nprocshared=4
# B3LYP/6-311++G(d,p) empiricaldispersion=gd3bj scf=xqc pop=npa geom=check

CID_107553408_JID_7042_Energie_neutraal

0 1

--Link1--
%chk=JID_7042.chk
%mem=8GB
%nprocshared=4
# B3LYP/6-311++G(d,p) empiricaldispersion=gd3bj scf=xqc pop=npa geom=check

CID_107553408_JID_7042_Energie_kation

1 2

--Link1--
%chk=JID_7042.chk
%mem=8GB
%nprocshared=4
# B3LYP/6-311++G(d,p) empiricaldispersion=gd3bj scf=xqc pop=npa geom=check

CID_107553408_JID_7042_Energie_anion

-1 2
