%chk=JID_10357.chk
%mem=8GB
%nprocshared=4
# opt=(cartesian,calcfc,maxcycle=500) freq B3LYP/6-31G(d) empiricaldispersion=gd3bj scf=xqc

CID_12547501_JID_10357_neutraal

0 1
O       -6.9084 2.0199  0.4821
N       4.0590  0.2064  0.0522
N       -8.5115 0.3971  0.2012
C       6.2530  -0.0611 1.1401
C       5.7503  1.9759  -0.2176
C       6.8331  0.9885  0.1998
C       5.0551  -0.7711 0.5134
C       4.5485  1.2652  -0.8382
C       2.7326  -0.2280 -0.0593
C       -1.3228 -1.5571 -0.3989
C       -2.3139 -0.4177 -0.1511
C       0.1051  -1.0892 -0.2794
C       2.0833  -0.1781 -1.2928
C       2.0605  -0.7108 1.0635
C       -3.7595 -0.9114 -0.2393
C       0.7621  -0.6112 -1.4035
C       0.7392  -1.1439 0.9528
C       -4.7510 0.2231  0.0362
C       -6.2033 -0.2483 -0.0184
C       -7.2113 0.8518  0.2572
H       4.6406  -1.4598 1.2585
H       5.3828  -1.3802 -0.3386
H       3.7701  2.0175  -1.0168
H       4.8344  0.8360  -1.8067
H       5.9420  0.4226  2.0747
H       7.0243  -0.7951 1.3987
H       6.1608  2.6995  -0.9308
H       5.4220  2.5433  0.6625
H       7.6520  1.5210  0.6957
H       7.2536  0.5007  -0.6879
H       -1.4866 -1.9894 -1.3944
H       -1.5005 -2.3737 0.3128
H       -2.1534 0.3834  -0.8836
H       -2.1372 0.0202  0.8396
H       2.5802  0.1776  -2.1909
H       2.5437  -0.7434 2.0366
H       -3.9471 -1.3295 -1.2356
H       -3.9176 -1.7183 0.4865
H       0.2651  -0.5701 -2.3687
H       0.2226  -1.5134 1.8340
H       -4.5475 0.6568  1.0234
H       -4.6005 1.0274  -0.6948
H       -6.3613 -1.0443 0.7193
H       -6.4192 -0.6654 -1.0095
H       -8.7394 -0.5726 0.0063
H       -9.2916 1.0265  0.3584

--Link1--
%chk=JID_10357.chk
%mem=8GB
%nprocshared=4
# B3LYP/6-311++G(d,p) empiricaldispersion=gd3bj scf=xqc pop=npa geom=check

CID_12547501_JID_10357_Energie_neutraal

0 1

--Link1--
%chk=JID_10357.chk
%mem=8GB
%nprocshared=4
# B3LYP/6-311++G(d,p) empiricaldispersion=gd3bj scf=xqc pop=npa geom=check

CID_12547501_JID_10357_Energie_kation

1 2

--Link1--
%chk=JID_10357.chk
%mem=8GB
%nprocshared=4
# B3LYP/6-311++G(d,p) empiricaldispersion=gd3bj scf=xqc pop=npa geom=check

CID_12547501_JID_10357_Energie_anion

-1 2
