%chk=JID_7727.chk
%mem=8GB
%nprocshared=4
# opt freq B3LYP/6-31G(d) empiricaldispersion=gd3bj scf=xqc

CID_152318488_JID_7727_neutraal

0 1
C          0.94289       -0.06816        0.04575
C          0.75325       -0.56896       -1.37774
N          1.15521       -1.96148       -1.51956
C          2.44934       -2.32447       -1.73289
O          3.41834       -1.59909       -1.84091
C          2.37374       -3.79502       -1.78805
C          3.41611       -4.61408       -2.00948
N          3.43383       -6.00306       -2.08931
C          4.81917       -6.46778       -2.17131
C          5.49691       -5.17906       -2.66572
O          4.69860       -4.08599       -2.17134
C          5.00343       -7.59411       -3.18543
C          5.34600       -6.87140       -0.78945
C          2.38024       -6.88556       -1.62017
O          1.07366       -4.24410       -1.58758
C          0.38294       -3.07370       -1.41409
S         -1.24583       -3.20537       -1.11123
H          0.35064       -0.65654        0.75391
H          0.63255        0.97817        0.12518
H          1.99208       -0.13761        0.35120
H         -0.29394       -0.45524       -1.67412
H          1.36147        0.03868       -2.05728
H          5.50791       -5.10705       -3.76060
H          6.52456       -5.06873       -2.30443
H          6.06676       -7.79623       -3.35578
H          4.54144       -8.52658       -2.84483
H          4.54940       -7.34055       -4.15028
H          5.21209       -6.07007       -0.05387
H          4.82296       -7.75478       -0.40658
H          6.41421       -7.11107       -0.83297
H          1.45683       -6.71552       -2.18275
H          2.64041       -7.93971       -1.75385
H          2.18396       -6.72286       -0.55517

--Link1--
%chk=JID_7727.chk
%mem=8GB
%nprocshared=4
# B3LYP/6-311++G(d,p) empiricaldispersion=gd3bj scf=xqc pop=npa geom=check

CID_152318488_JID_7727_Energie_neutraal

0 1

--Link1--
%chk=JID_7727.chk
%mem=8GB
%nprocshared=4
# B3LYP/6-311++G(d,p) empiricaldispersion=gd3bj scf=xqc pop=npa geom=check

CID_152318488_JID_7727_Energie_kation

1 2

--Link1--
%chk=JID_7727.chk
%mem=8GB
%nprocshared=4
# B3LYP/6-311++G(d,p) empiricaldispersion=gd3bj scf=xqc pop=npa geom=check

CID_152318488_JID_7727_Energie_anion

-1 2
