%chk=JID_9699.chk
%mem=8GB
%nprocshared=4
# opt freq B3LYP/6-31G(d) empiricaldispersion=gd3bj scf=xqc

CID_64519451_JID_9699_neutraal

0 1
C          0.95698        0.06025        0.06723
C          0.42276        1.21342        0.91360
C          1.37251        1.56480        2.06415
C          1.00174        3.00238        2.39352
N          0.60972        3.59089        1.11880
C          0.36387        2.53650        0.13383
C          0.73030        4.94734        0.95497
O          1.14339        5.64950        1.88702
N          0.41017        5.53894       -0.24956
C         -0.57472        5.04030       -1.19688
C          0.78165        6.94596       -0.41363
C         -0.26180        7.83294        0.16802
N         -1.12752        8.61116       -0.44984
C         -1.82756        9.17061        0.58204
N         -1.45207        8.78808        1.80430
N         -0.45655        7.93133        1.51840
C         -0.98377        0.84465        1.35847
O         -1.97101        0.80766        0.63992
O         -1.08394        0.47443        2.64718
H          0.30607       -0.13622       -0.79244
H          1.01341       -0.86332        0.65460
H          1.95983        0.27526       -0.31769
H          1.30014        0.91185        2.93866
H          2.41406        1.53361        1.71778
H          1.83658        3.53829        2.85588
H          0.13615        3.05395        3.06305
H          1.15397        2.60573       -0.62257
H         -0.60355        2.67861       -0.34720
H         -0.95566        5.84990       -1.82752
H         -0.09856        4.30474       -1.84959
H         -1.42039        4.60440       -0.65920
H          1.74671        7.13578        0.07179
H          0.91827        7.15207       -1.48128
H         -2.63508        9.87664        0.43690
H          0.02688        7.42259        2.25609
H         -2.03196        0.24864        2.76105

--Link1--
%chk=JID_9699.chk
%mem=8GB
%nprocshared=4
# B3LYP/6-311++G(d,p) empiricaldispersion=gd3bj scf=xqc pop=npa geom=check

CID_64519451_JID_9699_Energie_neutraal

0 1

--Link1--
%chk=JID_9699.chk
%mem=8GB
%nprocshared=4
# B3LYP/6-311++G(d,p) empiricaldispersion=gd3bj scf=xqc pop=npa geom=check

CID_64519451_JID_9699_Energie_kation

1 2

--Link1--
%chk=JID_9699.chk
%mem=8GB
%nprocshared=4
# B3LYP/6-311++G(d,p) empiricaldispersion=gd3bj scf=xqc pop=npa geom=check

CID_64519451_JID_9699_Energie_anion

-1 2
