%chk=JID_9975.chk
%mem=8GB
%nprocshared=4
# opt freq B3LYP/6-31G(d) empiricaldispersion=gd3bj scf=xqc

CID_113793378_JID_9975_neutraal

0 1
C          1.05768        0.04635       -0.06727
C          0.21806       -0.09285        1.18859
O          0.67942        0.83308        2.18156
C          1.66429        0.38058        3.00795
O          2.12349       -0.75504        3.00894
C          2.09599        1.47750        3.98331
O          2.24510        2.81192        3.52771
C          3.07804        2.97970        2.37848
C          4.58301        3.03846        2.69511
N          5.15132        1.70129        2.88703
C          6.61703        1.64476        2.74072
C          7.30135        2.36038        3.91681
C          7.12336        0.20454        2.61937
C          8.48912       -0.03302        2.38302
C          8.99214       -1.33377        2.27544
C          8.13964       -2.43564        2.38257
C          6.77772       -2.21439        2.59783
C          6.27625       -0.91276        2.70897
C          8.68971       -3.82653        2.28103
H          1.03556        1.07860       -0.43196
H          0.68914       -0.61499       -0.85639
H          2.10579       -0.19773        0.13386
H         -0.82296        0.16421        0.96765
H          0.22323       -1.12319        1.56194
H          1.33494        1.49710        4.77223
H          3.01815        1.15761        4.47460
H          2.85759        2.23786        1.60328
H          2.79600        3.95109        1.95572
H          5.07534        3.52575        1.84542
H          4.74541        3.65003        3.58895
H          4.92693        1.37083        3.82371
H          6.89335        2.14285        1.80194
H          8.39126        2.36443        3.81002
H          6.99367        3.40884        3.98548
H          7.06746        1.87379        4.87098
H          9.18167        0.79913        2.27795
H         10.05610       -1.48030        2.10393
H          6.08694       -3.05100        2.67698
H          5.20482       -0.79316        2.85730
H          9.26400       -3.94107        1.35602
H          9.33932       -4.03669        3.13665
H          7.89017       -4.57465        2.26993

--Link1--
%chk=JID_9975.chk
%mem=8GB
%nprocshared=4
# B3LYP/6-311++G(d,p) empiricaldispersion=gd3bj scf=xqc pop=npa geom=check

CID_113793378_JID_9975_Energie_neutraal

0 1

--Link1--
%chk=JID_9975.chk
%mem=8GB
%nprocshared=4
# B3LYP/6-311++G(d,p) empiricaldispersion=gd3bj scf=xqc pop=npa geom=check

CID_113793378_JID_9975_Energie_kation

1 2

--Link1--
%chk=JID_9975.chk
%mem=8GB
%nprocshared=4
# B3LYP/6-311++G(d,p) empiricaldispersion=gd3bj scf=xqc pop=npa geom=check

CID_113793378_JID_9975_Energie_anion

-1 2
