%chk=JID_7712.chk
%mem=8GB
%nprocshared=4
# opt freq B3LYP/6-31G(d) empiricaldispersion=gd3bj scf=xqc

CID_81919773_JID_7712_neutraal

0 1
C          1.00226        0.03954       -0.09182
C          1.11083       -0.93303        1.06563
O          1.89818       -0.31702        2.08957
C          2.23609       -1.14838        3.09826
O          1.96510       -2.32938        3.21847
C          2.94771       -0.34806        4.17840
O          2.27327        0.17395        5.06272
N          4.31076       -0.20818        4.18276
C          5.40553       -0.66710        3.32243
C          5.58597       -2.19399        3.31522
C          5.06992       -2.92150        2.08242
C          5.48658       -2.23152        0.79862
C          5.00955       -0.78669        0.77065
C          5.56280        0.04178        1.94194
C          5.07851        1.52733        1.92838
C          5.88394        2.39311        2.90810
C          5.16231        2.17513        0.53963
H          0.54676        0.97980        0.23604
H          0.39867       -0.38191       -0.90047
H          1.99371        0.28769       -0.48440
H          0.11369       -1.15507        1.46112
H          1.58570       -1.85917        0.72177
H          4.59214        0.34106        4.98717
H          6.27070       -0.31009        3.90260
H          6.66491       -2.39614        3.37191
H          5.15103       -2.64281        4.21647
H          3.98298       -3.00509        2.10962
H          5.45149       -3.94950        2.08443
H          5.06832       -2.77101       -0.05904
H          6.57791       -2.26462        0.69417
H          3.92059       -0.76038        0.76254
H          5.33828       -0.35695       -0.18244
H          6.64898        0.07442        1.75874
H          4.02488        1.56495        2.22857
H          6.94884        2.39001        2.65137
H          5.53621        3.43185        2.88331
H          5.78512        2.04937        3.94048
H          4.45429        1.71567       -0.15711
H          4.90776        3.23976        0.58916
H          6.17042        2.08848        0.12080

--Link1--
%chk=JID_7712.chk
%mem=8GB
%nprocshared=4
# B3LYP/6-311++G(d,p) empiricaldispersion=gd3bj scf=xqc pop=npa geom=check

CID_81919773_JID_7712_Energie_neutraal

0 1

--Link1--
%chk=JID_7712.chk
%mem=8GB
%nprocshared=4
# B3LYP/6-311++G(d,p) empiricaldispersion=gd3bj scf=xqc pop=npa geom=check

CID_81919773_JID_7712_Energie_kation

1 2

--Link1--
%chk=JID_7712.chk
%mem=8GB
%nprocshared=4
# B3LYP/6-311++G(d,p) empiricaldispersion=gd3bj scf=xqc pop=npa geom=check

CID_81919773_JID_7712_Energie_anion

-1 2
