%chk=JID_9372.chk
%mem=8GB
%nprocshared=4
# opt freq B3LYP/6-31G(d) empiricaldispersion=gd3bj scf=xqc

CID_117125337_JID_9372_neutraal

0 1
C          0.94897       -0.00548       -0.08582
C          1.47591        1.02422        0.92095
C          1.87404        2.34321        0.21885
N          0.76915        3.07681       -0.36904
C          0.31504        2.98238       -1.65441
C         -0.73132        3.86926       -1.74062
C         -0.80281        4.48526       -0.48197
N          0.10014        3.98882        0.37066
O         -1.50311        4.13692       -2.81621
C         -1.72334        3.16220       -3.76049
C         -1.36260        3.43106       -5.07854
C         -1.60006        2.47310       -6.06108
C         -2.21101        1.26373       -5.71972
C         -2.59739        1.00296       -4.40087
C         -2.35560        1.96130       -3.41774
O         -3.19663       -0.21175       -4.20860
C         -3.66046       -0.49758       -2.89421
N          0.47295        1.14852        1.99485
C          1.01542        1.77367        3.19577
H         -0.01418        0.29189       -0.51452
H          0.80842       -0.98031        0.39547
H          1.65953       -0.14493       -0.90769
H          2.39103        0.59171        1.34726
H          2.37546        3.02112        0.91967
H          2.59026        2.13990       -0.58675
H          0.75802        2.30790       -2.37322
H         -1.47939        5.26002       -0.14716
H         -0.89423        4.37657       -5.33587
H         -1.31577        2.66554       -7.09212
H         -2.39761        0.51915       -6.49032
H         -2.64831        1.80690       -2.38546
H         -2.82893       -0.53798       -2.18281
H         -4.41885        0.22589       -2.57652
H         -4.13092       -1.48539       -2.91308
H         -0.29840        1.73670        1.66145
H          1.34012        2.80224        3.01394
H          0.23946        1.80290        3.96732
H          1.85449        1.19709        3.59779

--Link1--
%chk=JID_9372.chk
%mem=8GB
%nprocshared=4
# B3LYP/6-311++G(d,p) empiricaldispersion=gd3bj scf=xqc pop=npa geom=check

CID_117125337_JID_9372_Energie_neutraal

0 1

--Link1--
%chk=JID_9372.chk
%mem=8GB
%nprocshared=4
# B3LYP/6-311++G(d,p) empiricaldispersion=gd3bj scf=xqc pop=npa geom=check

CID_117125337_JID_9372_Energie_kation

1 2

--Link1--
%chk=JID_9372.chk
%mem=8GB
%nprocshared=4
# B3LYP/6-311++G(d,p) empiricaldispersion=gd3bj scf=xqc pop=npa geom=check

CID_117125337_JID_9372_Energie_anion

-1 2
