%chk=JID_8607.chk
%mem=8GB
%nprocshared=4
# opt freq B3LYP/6-31G(d) empiricaldispersion=gd3bj scf=xqc

CID_65120810_JID_8607_neutraal

0 1
C          1.03873        0.02556        0.08858
C          1.22976        0.99935       -1.05418
S          2.64921        0.62492       -2.07006
O          2.57057       -0.77507       -2.44303
O          2.72239        1.64348       -3.10263
C          4.06485        0.82523       -1.00101
C          4.25667        2.26513       -0.54051
N          3.98888        2.44632        0.88793
C          4.20932        3.84220        1.31138
C          3.05982        4.47322        2.16439
C          3.41053        5.93058        2.52648
C          3.35394        6.87695        1.32148
C          2.02276        6.80920        0.53463
C          1.62465        5.34400        0.24392
C          1.68459        4.44800        1.47707
C          2.19367        7.54466       -0.80840
C          0.90643        7.51905        1.32572
O          2.95043        3.71076        3.37496
H          0.92489       -0.99912       -0.27872
H          0.13873        0.28238        0.65601
H          1.88486        0.04097        0.78041
H          0.35918        0.97084       -1.71782
H          1.33754        2.02394       -0.69140
H          3.98388        0.11029       -0.17753
H          4.92501        0.51949       -1.60877
H          5.30932        2.52545       -0.71033
H          3.65434        2.96376       -1.12962
H          3.06891        2.13204        1.18511
H          5.12443        3.83574        1.91655
H          4.41502        4.47599        0.44267
H          2.72952        6.29212        3.30773
H          4.40839        5.97320        2.98154
H          4.18977        6.64570        0.64987
H          3.53283        7.90303        1.66776
H          2.28213        4.92719       -0.52848
H          0.61063        5.30565       -0.17438
H          1.39863        3.42527        1.21057
H          0.91469        4.75958        2.19566
H          1.26476        7.52688       -1.38981
H          2.47442        8.59237       -0.65500
H          2.97463        7.07723       -1.41925
H          0.73980        7.06626        2.30740
H          1.15299        8.57441        1.48957
H         -0.04409        7.48454        0.78109
H          2.33959        4.17302        3.97390

--Link1--
%chk=JID_8607.chk
%mem=8GB
%nprocshared=4
# B3LYP/6-311++G(d,p) empiricaldispersion=gd3bj scf=xqc pop=npa geom=check

CID_65120810_JID_8607_Energie_neutraal

0 1

--Link1--
%chk=JID_8607.chk
%mem=8GB
%nprocshared=4
# B3LYP/6-311++G(d,p) empiricaldispersion=gd3bj scf=xqc pop=npa geom=check

CID_65120810_JID_8607_Energie_kation

1 2

--Link1--
%chk=JID_8607.chk
%mem=8GB
%nprocshared=4
# B3LYP/6-311++G(d,p) empiricaldispersion=gd3bj scf=xqc pop=npa geom=check

CID_65120810_JID_8607_Energie_anion

-1 2
