%chk=JID_2696.chk
%mem=8GB
%nprocshared=4
# opt freq B3LYP/6-31G(d) empiricaldispersion=gd3bj scf=xqc

CID_115607466_JID_2696_neutraal

0 1
C          0.92680        0.01287        0.06690
C          0.38313       -0.28743       -1.28808
C          1.32186       -0.53665       -2.44038
C          0.45868       -1.66305       -1.92313
C          1.09011       -2.84886       -1.25828
N          0.09864       -3.40056       -0.33892
C          0.58401       -4.62614        0.31402
C          1.70742       -4.39801        1.29318
N          2.98207       -4.61105        1.03060
C          3.74557       -4.29524        2.13627
C          3.04675       -3.83846        3.23178
S          1.37174       -3.79955        2.87437
H          0.22028       -0.31040        0.83750
H          1.07535        1.09185        0.17711
H          1.88759       -0.47558        0.25495
H         -0.51395        0.29094       -1.48536
H          1.06728       -0.10719       -3.40316
H          2.38803       -0.56830       -2.24477
H         -0.37725       -1.96556       -2.54793
H          1.34827       -3.58299       -2.03012
H          2.01251       -2.56562       -0.74099
H         -0.10854       -2.70582        0.37647
H         -0.26127       -5.08874        0.83792
H          0.89894       -5.35561       -0.44242
H          4.82077       -4.41798        2.08918
H          3.42917       -3.53505        4.19537

--Link1--
%chk=JID_2696.chk
%mem=8GB
%nprocshared=4
# B3LYP/6-311++G(d,p) empiricaldispersion=gd3bj scf=xqc pop=npa geom=check

CID_115607466_JID_2696_Energie_neutraal

0 1

--Link1--
%chk=JID_2696.chk
%mem=8GB
%nprocshared=4
# B3LYP/6-311++G(d,p) empiricaldispersion=gd3bj scf=xqc pop=npa geom=check

CID_115607466_JID_2696_Energie_kation

1 2

--Link1--
%chk=JID_2696.chk
%mem=8GB
%nprocshared=4
# B3LYP/6-311++G(d,p) empiricaldispersion=gd3bj scf=xqc pop=npa geom=check

CID_115607466_JID_2696_Energie_anion

-1 2
