%chk=JID_3932.chk
%mem=8GB
%nprocshared=4
# opt freq B3LYP/6-31G(d) empiricaldispersion=gd3bj scf=xqc

CID_54286117_JID_3932_neutraal

0 1
C          1.04685        0.08191       -0.03310
N          0.28235        1.19928       -0.57950
C         -0.50272        0.90702       -1.77991
C          0.73505        2.51005       -0.40118
C         -0.03290        3.60955       -0.82073
C          0.38848        4.93048       -0.60155
C          1.59334        5.19707        0.04135
C          2.37596        4.12852        0.46058
C          1.94679        2.81098        0.24644
S         -0.65433        6.25704       -1.15416
O         -1.41478        5.76485       -2.28817
O         -1.31817        6.78564        0.02176
C          0.43707        7.50599       -1.77812
H          0.47549       -0.85064       -0.10292
H          1.26091        0.22701        1.03158
H          1.98532       -0.05708       -0.58072
H         -1.48673        1.38486       -1.73944
H          0.02503        1.23174       -2.68377
H         -0.69044       -0.16820       -1.87940
H         -0.99976        3.45209       -1.29211
H          1.92492        6.20925        0.24702
H          3.31957        4.30885        0.97015
H          2.59916        2.01811        0.60141
H          1.00870        7.93840       -0.95555
H          1.09635        7.06716       -2.52888
H         -0.17522        8.28615       -2.23704

--Link1--
%chk=JID_3932.chk
%mem=8GB
%nprocshared=4
# B3LYP/6-311++G(d,p) empiricaldispersion=gd3bj scf=xqc pop=npa geom=check

CID_54286117_JID_3932_Energie_neutraal

0 1

--Link1--
%chk=JID_3932.chk
%mem=8GB
%nprocshared=4
# B3LYP/6-311++G(d,p) empiricaldispersion=gd3bj scf=xqc pop=npa geom=check

CID_54286117_JID_3932_Energie_kation

1 2

--Link1--
%chk=JID_3932.chk
%mem=8GB
%nprocshared=4
# B3LYP/6-311++G(d,p) empiricaldispersion=gd3bj scf=xqc pop=npa geom=check

CID_54286117_JID_3932_Energie_anion

-1 2
