%chk=JID_6373.chk
%mem=8GB
%nprocshared=4
# opt freq B3LYP/6-31G(d) empiricaldispersion=gd3bj scf=xqc

CID_63303996_JID_6373_neutraal

0 1
C         -2.13100       -0.04600       -0.06100
N         -0.70290       -0.25733       -0.01430
C         -0.01516       -1.39898       -0.34249
C          1.31197       -1.10910       -0.09355
C          1.32048        0.22279        0.34802
N          0.09642        0.75165        0.38698
C         -0.66527       -2.64161       -0.83948
N          0.16868       -3.29641       -1.84575
C          0.02192       -3.02940       -3.10022
C         -0.90941       -2.02293       -3.65932
C         -2.09582       -2.45138       -4.25724
C         -2.96571       -1.50717       -4.80211
C         -2.64060       -0.14910       -4.75615
C         -1.44377        0.26990       -4.17062
C         -0.56968       -0.66908       -3.62439
N          0.79611       -3.72056       -3.99133
H         -2.62076       -0.85337        0.48888
H         -2.37365        0.91280        0.40486
H         -2.44630       -0.04174       -1.10634
H          2.15069       -1.77726       -0.22833
H          2.16600        0.83128        0.64061
H         -0.77478       -3.33351        0.00445
H         -1.68266       -2.46642       -1.20442
H         -2.33983       -3.50981       -4.29311
H         -3.89553       -1.82796       -5.26531
H         -3.32022        0.58541       -5.18235
H         -1.19243        1.32745       -4.13875
H          0.36257       -0.34603       -3.16748
H          1.58002       -4.17859       -3.53830
H          1.04767       -3.23273       -4.84300

--Link1--
%chk=JID_6373.chk
%mem=8GB
%nprocshared=4
# B3LYP/6-311++G(d,p) empiricaldispersion=gd3bj scf=xqc pop=npa geom=check

CID_63303996_JID_6373_Energie_neutraal

0 1

--Link1--
%chk=JID_6373.chk
%mem=8GB
%nprocshared=4
# B3LYP/6-311++G(d,p) empiricaldispersion=gd3bj scf=xqc pop=npa geom=check

CID_63303996_JID_6373_Energie_kation

1 2

--Link1--
%chk=JID_6373.chk
%mem=8GB
%nprocshared=4
# B3LYP/6-311++G(d,p) empiricaldispersion=gd3bj scf=xqc pop=npa geom=check

CID_63303996_JID_6373_Energie_anion

-1 2
