%chk=JID_6456.chk
%mem=8GB
%nprocshared=4
# opt freq B3LYP/6-31G(d) empiricaldispersion=gd3bj scf=xqc

CID_108423080_JID_6456_neutraal

0 1
C          0.97895       -0.00953       -0.09729
C          0.57053       -0.99646        0.98382
C          1.09960       -0.64967        2.38264
C          0.52030        0.60969        3.07562
C         -1.02954        0.62553        3.10977
C         -1.69437       -0.55791        3.79813
C          1.08735        0.76008        4.52184
C          2.59652        0.84070        4.62775
C          3.35025       -0.30285        4.93475
C          4.74705       -0.25581        4.99069
C          5.39939        0.95442        4.76040
C          4.66049        2.10265        4.46622
C          3.26844        2.04600        4.39741
O          5.34811       -1.45136        5.27681
C          6.76691       -1.48884        5.19001
O          0.90716        1.76499        2.31311
H          0.44675        0.94006        0.00324
H          0.73256       -0.41478       -1.08433
H          2.05558        0.18535       -0.07293
H         -0.51788       -1.11173        0.98980
H          0.97714       -1.97842        0.71019
H          0.93030       -1.52087        3.02813
H          2.18702       -0.54135        2.28488
H         -1.36605        1.54763        3.60319
H         -1.41882        0.70862        2.08704
H         -1.41922       -0.61859        4.85445
H         -2.78313       -0.44896        3.75004
H         -1.43776       -1.50511        3.31626
H          0.67918        1.67135        4.98040
H          0.74370       -0.07035        5.15045
H          2.85178       -1.25323        5.11238
H          6.47974        1.03990        4.79992
H          5.17217        3.04328        4.28015
H          2.71406        2.94740        4.14900
H          7.11189       -1.20672        4.18943
H          7.22391       -0.85758        5.95893
H          7.08582       -2.51957        5.37251
H          0.55954        2.55358        2.76174

--Link1--
%chk=JID_6456.chk
%mem=8GB
%nprocshared=4
# B3LYP/6-311++G(d,p) empiricaldispersion=gd3bj scf=xqc pop=npa geom=check

CID_108423080_JID_6456_Energie_neutraal

0 1

--Link1--
%chk=JID_6456.chk
%mem=8GB
%nprocshared=4
# B3LYP/6-311++G(d,p) empiricaldispersion=gd3bj scf=xqc pop=npa geom=check

CID_108423080_JID_6456_Energie_kation

1 2

--Link1--
%chk=JID_6456.chk
%mem=8GB
%nprocshared=4
# B3LYP/6-311++G(d,p) empiricaldispersion=gd3bj scf=xqc pop=npa geom=check

CID_108423080_JID_6456_Energie_anion

-1 2
