%chk=JID_9328.chk
%mem=8GB
%nprocshared=4
# opt freq B3LYP/6-31G(d) empiricaldispersion=gd3bj scf=xqc

CID_43575703_JID_9328_neutraal

0 1
C          2.49200        0.00400       -0.01400
C          1.11607        0.20141        0.55637
C          0.41788       -0.92318        1.03046
C         -0.84156       -0.79466        1.61476
C         -1.41774        0.46221        1.74759
C         -0.73790        1.58710        1.28283
C          0.52379        1.47726        0.66532
C          1.22015        2.74770        0.21096
N          0.38604        3.62286       -0.64113
C          0.83385        5.01176       -0.49275
C          0.44139        3.25321       -2.07184
C         -0.25550        1.96051       -2.45809
C          0.53264        0.92250       -2.99735
C         -0.03268       -0.28626       -3.40197
C         -1.40302       -0.47416       -3.29739
C         -2.20435        0.54827       -2.79163
C         -1.65322        1.77157       -2.35522
C         -2.59103        2.85644       -1.86871
N         -3.62984        2.34163       -0.97276
H          2.72294       -1.05864       -0.14615
H          2.58873        0.47214       -0.99590
H          3.24071        0.42636        0.66387
H          0.85587       -1.91548        0.94754
H         -1.36821       -1.67605        1.96964
H         -2.39483        0.56779        2.20990
H         -1.19737        2.56746        1.39239
H          1.47334        3.27052        1.14496
H          2.18222        2.55150       -0.27396
H          1.87742        5.14445       -0.80099
H          0.20806        5.68685       -1.08738
H          0.73452        5.34084        0.54783
H          1.48633        3.23543       -2.41192
H         -0.03899        4.03785       -2.67341
H          1.60709        1.05118       -3.10344
H          0.59684       -1.07653       -3.80066
H         -1.85428       -1.41060       -3.61228
H         -3.28004        0.39037       -2.73077
H         -2.06065        3.64506       -1.33345
H         -3.06474        3.32278       -2.73973
H         -4.08690        3.13048       -0.52206
H         -3.15531        1.82568       -0.23066

--Link1--
%chk=JID_9328.chk
%mem=8GB
%nprocshared=4
# B3LYP/6-311++G(d,p) empiricaldispersion=gd3bj scf=xqc pop=npa geom=check

CID_43575703_JID_9328_Energie_neutraal

0 1

--Link1--
%chk=JID_9328.chk
%mem=8GB
%nprocshared=4
# B3LYP/6-311++G(d,p) empiricaldispersion=gd3bj scf=xqc pop=npa geom=check

CID_43575703_JID_9328_Energie_kation

1 2

--Link1--
%chk=JID_9328.chk
%mem=8GB
%nprocshared=4
# B3LYP/6-311++G(d,p) empiricaldispersion=gd3bj scf=xqc pop=npa geom=check

CID_43575703_JID_9328_Energie_anion

-1 2
