%chk=JID_3549.chk
%mem=8GB
%nprocshared=4
# opt freq B3LYP/6-31G(d) empiricaldispersion=gd3bj scf=xqc

CID_124248866_JID_3549_neutraal

0 1
C          1.04567       -0.07823        0.04236
C          0.37593       -0.75615        1.20123
C          0.24208       -2.14881        1.21947
C         -0.34718       -2.74700        2.32462
C         -0.82807       -2.00989        3.42058
C         -0.67712       -0.62598        3.39990
C         -0.07323       -0.00407        2.30112
C         -1.43767       -2.95421        4.48518
C         -0.92238       -4.33851        4.03672
C         -0.64331       -4.20928        2.51926
C         -2.92126       -2.83806        4.89657
C         -2.40238       -3.06190        6.32714
N         -1.07690       -2.59120        5.87459
H          0.71547        0.96178       -0.04981
H          0.79733       -0.58217       -0.89764
H          2.13149       -0.09177        0.17774
H          0.58831       -2.75335        0.38657
H         -1.02077       -0.03404        4.24394
H          0.04438        1.07736        2.30843
H         -1.62517       -5.15193        4.24575
H          0.02247       -4.57929        4.54290
H         -1.53493       -4.47806        1.94221
H          0.19346       -4.84640        2.21835
H         -3.36534       -1.84818        4.73672
H         -3.60283       -3.60076        4.51100
H         -2.86847       -2.44613        7.10080
H         -2.41242       -4.10938        6.65015
H         -0.27949       -3.09050        6.26142

--Link1--
%chk=JID_3549.chk
%mem=8GB
%nprocshared=4
# B3LYP/6-311++G(d,p) empiricaldispersion=gd3bj scf=xqc pop=npa geom=check

CID_124248866_JID_3549_Energie_neutraal

0 1

--Link1--
%chk=JID_3549.chk
%mem=8GB
%nprocshared=4
# B3LYP/6-311++G(d,p) empiricaldispersion=gd3bj scf=xqc pop=npa geom=check

CID_124248866_JID_3549_Energie_kation

1 2

--Link1--
%chk=JID_3549.chk
%mem=8GB
%nprocshared=4
# B3LYP/6-311++G(d,p) empiricaldispersion=gd3bj scf=xqc pop=npa geom=check

CID_124248866_JID_3549_Energie_anion

-1 2
