%chk=JID_4829.chk
%mem=8GB
%nprocshared=4
# opt freq B3LYP/6-31G(d) empiricaldispersion=gd3bj scf=xqc

CID_115587993_JID_4829_neutraal

0 1
C          0.91544        0.00549        0.05309
N          1.12367        1.31054       -0.53925
C          0.21144        2.30775       -0.71864
S          0.83195        3.86501       -0.80436
N         -1.13203        1.96268       -0.80442
C         -1.52879        0.84675       -1.69180
C         -2.20582        1.26809       -3.00389
C         -1.26222        1.97901       -3.96734
O         -0.22810        1.07787       -4.35909
C          0.75069        1.72537       -5.16184
C         -2.17642        2.95210       -0.43690
C         -3.47371        2.37321        0.15369
O         -3.42281        2.16487        1.56792
C         -2.52474        1.14054        1.96523
H          1.12293       -0.75493       -0.70340
H         -0.09576       -0.10846        0.44661
H          1.62949       -0.10781        0.87336
H          2.07916        1.64874       -0.53190
H         -0.66274        0.23097       -1.94682
H         -2.20620        0.20342       -1.12128
H         -2.57513        0.35612       -3.48991
H         -3.07798        1.90029       -2.81033
H         -1.81967        2.28424       -4.86038
H         -0.83503        2.87482       -3.50625
H          0.29443        2.13174       -6.06963
H          1.24235        2.52286       -4.59644
H          1.50358        0.98656       -5.44898
H         -1.76059        3.65333        0.29475
H         -2.40703        3.52019       -1.34527
H         -4.26467        3.11675        0.00317
H         -3.81258        1.45915       -0.34203
H         -2.69301        0.22422        1.39208
H         -1.49009        1.47641        1.86376
H         -2.70336        0.92394        3.02222

--Link1--
%chk=JID_4829.chk
%mem=8GB
%nprocshared=4
# B3LYP/6-311++G(d,p) empiricaldispersion=gd3bj scf=xqc pop=npa geom=check

CID_115587993_JID_4829_Energie_neutraal

0 1

--Link1--
%chk=JID_4829.chk
%mem=8GB
%nprocshared=4
# B3LYP/6-311++G(d,p) empiricaldispersion=gd3bj scf=xqc pop=npa geom=check

CID_115587993_JID_4829_Energie_kation

1 2

--Link1--
%chk=JID_4829.chk
%mem=8GB
%nprocshared=4
# B3LYP/6-311++G(d,p) empiricaldispersion=gd3bj scf=xqc pop=npa geom=check

CID_115587993_JID_4829_Energie_anion

-1 2
