%chk=JID_4212.chk
%mem=8GB
%nprocshared=4
# opt freq B3LYP/6-31G(d) empiricaldispersion=gd3bj scf=xqc

CID_106229917_JID_4212_neutraal

0 1
C          1.09416       -0.03033        0.01463
C          0.78027        1.44934        0.04988
C          1.12143        2.12048       -1.27557
C          0.58748        1.35731       -2.49321
C         -0.93252        1.35731       -2.49321
C         -2.23637        1.35731       -2.49321
N          1.06685        2.07707       -3.68397
C          1.20025        1.27312       -4.91393
C         -0.16558        0.98279       -5.55405
C          2.11533        2.04037       -5.90526
C          3.49812        2.35903       -5.32933
C          2.31136        1.27672       -7.19548
O          2.11173        1.71224       -8.31839
O          2.77085        0.02288       -7.02804
H          0.38032       -0.59338       -0.59381
H          1.03090       -0.44208        1.02799
H          2.10727       -0.22086       -0.35416
H         -0.27817        1.59342        0.29461
H          1.35584        1.92978        0.84964
H          0.73925        3.15007       -1.25551
H          2.21523        2.19592       -1.34991
H          0.96771        0.33189       -2.51410
H         -3.30191        1.35700       -2.49351
H          0.47782        2.89357       -3.84617
H          1.68236        0.31737       -4.67168
H         -0.73091        1.90524       -5.72741
H         -0.06125        0.47272       -6.51689
H         -0.76766        0.31928       -4.92743
H          1.63052        2.98910       -6.17484
H          3.99661        1.45304       -4.96716
H          4.14439        2.80641       -6.09304
H          3.43211        3.06741       -4.49764
H          2.86631       -0.31814       -7.94254

--Link1--
%chk=JID_4212.chk
%mem=8GB
%nprocshared=4
# B3LYP/6-311++G(d,p) empiricaldispersion=gd3bj scf=xqc pop=npa geom=check

CID_106229917_JID_4212_Energie_neutraal

0 1

--Link1--
%chk=JID_4212.chk
%mem=8GB
%nprocshared=4
# B3LYP/6-311++G(d,p) empiricaldispersion=gd3bj scf=xqc pop=npa geom=check

CID_106229917_JID_4212_Energie_kation

1 2

--Link1--
%chk=JID_4212.chk
%mem=8GB
%nprocshared=4
# B3LYP/6-311++G(d,p) empiricaldispersion=gd3bj scf=xqc pop=npa geom=check

CID_106229917_JID_4212_Energie_anion

-1 2
