%chk=JID_9065.chk
%mem=8GB
%nprocshared=4
# opt freq B3LYP/6-31G(d) empiricaldispersion=gd3bj scf=xqc

CID_79464097_JID_9065_neutraal

0 1
C         -0.72000        1.26100        0.22400
C          0.74222        1.08063       -0.19401
N          1.21687       -0.23691        0.24140
C          0.49238       -1.30727       -0.43357
C         -0.96587       -1.27997        0.01237
C         -1.59057        0.09652       -0.28446
C         -3.00212        0.17680        0.26867
O         -3.98759        0.29735       -0.45160
N         -3.13884        0.08544        1.62009
C          1.81528       -0.28207        1.47445
O          2.05257        0.74317        2.12109
N          2.18806       -1.42394        2.07724
C          2.33210       -2.81482        1.67959
C          3.41718       -3.04294        0.62223
O          4.71021       -3.11149        1.23181
C          5.42275       -1.88185        1.22043
C          6.16029       -1.51311       -0.06414
O          6.98659       -0.62056       -0.17583
O          5.82186       -2.25278       -1.13942
H         -1.10451        2.21193       -0.16333
H         -0.76988        1.32828        1.31750
H          0.84101        1.13809       -1.28485
H          1.35640        1.88631        0.22212
H          0.92989       -2.28387       -0.27414
H          0.56070       -1.13081       -1.51477
H         -1.02233       -1.50761        1.08405
H         -1.53026       -2.06391       -0.50629
H         -1.67317        0.19718       -1.37588
H         -2.35714        0.08388        2.26081
H         -4.07199        0.17335        2.00151
H          2.62559       -1.19715        2.96261
H          2.59519       -3.35982        2.59398
H          1.35862       -3.19405        1.36614
H          3.24805       -4.02571        0.16943
H          3.38505       -2.29881       -0.18036
H          4.77128       -1.04885        1.49765
H          6.19460       -1.97807        1.99180
H          6.39156       -1.89964       -1.85390

--Link1--
%chk=JID_9065.chk
%mem=8GB
%nprocshared=4
# B3LYP/6-311++G(d,p) empiricaldispersion=gd3bj scf=xqc pop=npa geom=check

CID_79464097_JID_9065_Energie_neutraal

0 1

--Link1--
%chk=JID_9065.chk
%mem=8GB
%nprocshared=4
# B3LYP/6-311++G(d,p) empiricaldispersion=gd3bj scf=xqc pop=npa geom=check

CID_79464097_JID_9065_Energie_kation

1 2

--Link1--
%chk=JID_9065.chk
%mem=8GB
%nprocshared=4
# B3LYP/6-311++G(d,p) empiricaldispersion=gd3bj scf=xqc pop=npa geom=check

CID_79464097_JID_9065_Energie_anion

-1 2
