%chk=JID_5596.chk
%mem=8GB
%nprocshared=4
# opt freq B3LYP/6-31G(d) empiricaldispersion=gd3bj scf=xqc

CID_6914292_JID_5596_neutraal

0 1
C          1.05996       -0.02229        0.07687
C          0.77307       -0.03654        1.57746
C          1.66384        0.87704        2.41268
S          3.31466        0.14750        2.69962
O          4.03418        1.01749        3.68331
O          3.89048        0.60160        1.27281
C         -0.69833        0.21104        1.87514
O         -1.36722       -0.66047        2.43796
N         -1.33746        1.35870        1.53300
C         -0.83498        2.65303        1.07838
C         -1.72817        3.21587       -0.03511
C         -3.08385        3.70491        0.47341
C         -2.93127        4.69200        1.62574
C         -2.08566        4.11402        2.75563
C         -0.72381        3.63439        2.25382
H          1.23156        0.98479       -0.31082
H          0.23035       -0.46113       -0.48821
H          1.95545       -0.61091       -0.14862
H          0.94303       -1.07312        1.90595
H          1.80639        1.86422        1.96487
H          1.22941        1.02653        3.40760
H          4.73575        1.07805        1.45787
H         -2.30732        1.32840        1.82944
H          0.16237        2.51111        0.66421
H         -1.20965        4.05880       -0.51000
H         -1.88317        2.46038       -0.81489
H         -3.68958        2.85117        0.79963
H         -3.63108        4.18220       -0.34763
H         -3.92037        4.96728        2.00879
H         -2.46465        5.61359        1.25640
H         -2.62209        3.28151        3.22655
H         -1.94171        4.87497        3.53120
H         -0.17491        3.17890        3.08593
H         -0.14230        4.50748        1.93100

--Link1--
%chk=JID_5596.chk
%mem=8GB
%nprocshared=4
# B3LYP/6-311++G(d,p) empiricaldispersion=gd3bj scf=xqc pop=npa geom=check

CID_6914292_JID_5596_Energie_neutraal

0 1

--Link1--
%chk=JID_5596.chk
%mem=8GB
%nprocshared=4
# B3LYP/6-311++G(d,p) empiricaldispersion=gd3bj scf=xqc pop=npa geom=check

CID_6914292_JID_5596_Energie_kation

1 2

--Link1--
%chk=JID_5596.chk
%mem=8GB
%nprocshared=4
# B3LYP/6-311++G(d,p) empiricaldispersion=gd3bj scf=xqc pop=npa geom=check

CID_6914292_JID_5596_Energie_anion

-1 2
