%chk=JID_10827.chk
%mem=8GB
%nprocshared=4
# opt freq B3LYP/6-31G(d) empiricaldispersion=gd3bj scf=xqc

CID_104612582_JID_10827_neutraal

0 1
C          0.90676        0.00020       -0.03614
C          0.45605       -0.73168        1.19959
O         -0.53391       -0.39046        1.84121
C          1.22010       -1.92862        1.60785
C          2.59048       -1.88002        1.88932
C          3.23468       -3.09806        2.10854
C          2.51714       -4.30452        2.15647
C          1.13345       -4.35723        1.94330
C          0.50122       -3.13356        1.68263
N          0.40916       -5.54347        1.96953
C         -0.69414       -5.71037        1.00849
C         -0.70282       -7.12051        0.40053
C          0.73287       -7.59713        0.12875
C          1.52360       -7.67517        1.45262
C          0.94982       -6.77138        2.54628
C          0.78208       -8.93838       -0.61219
C          0.47019       -8.77053       -2.08279
O          1.28176       -8.35086       -2.89937
N         -0.80290       -9.07963       -2.45330
N          3.36533       -0.71481        1.76288
H          0.04051        0.16893       -0.68242
H          1.63590       -0.58351       -0.60473
H          1.34824        0.95881        0.24705
H          4.31228       -3.13120        2.25028
H          3.08827       -5.21163        2.32996
H         -0.57480       -3.09943        1.52534
H         -1.65083       -5.51249        1.50515
H         -0.60295       -5.00373        0.17357
H         -1.20356       -7.81826        1.08404
H         -1.29903       -7.10281       -0.51813
H          1.21835       -6.83783       -0.50141
H          2.56627       -7.40087        1.25011
H          1.54884       -8.70293        1.83577
H          0.12874       -7.29986        3.04920
H          1.68673       -6.58947        3.33692
H          1.78666       -9.37578       -0.55474
H          0.09668       -9.66371       -0.15854
H         -1.47850       -9.49567       -1.82909
H         -1.03507       -8.99297       -3.43458
H          2.86552        0.13392        2.01868
H          4.25653       -0.76902        2.24941

--Link1--
%chk=JID_10827.chk
%mem=8GB
%nprocshared=4
# B3LYP/6-311++G(d,p) empiricaldispersion=gd3bj scf=xqc pop=npa geom=check

CID_104612582_JID_10827_Energie_neutraal

0 1

--Link1--
%chk=JID_10827.chk
%mem=8GB
%nprocshared=4
# B3LYP/6-311++G(d,p) empiricaldispersion=gd3bj scf=xqc pop=npa geom=check

CID_104612582_JID_10827_Energie_kation

1 2

--Link1--
%chk=JID_10827.chk
%mem=8GB
%nprocshared=4
# B3LYP/6-311++G(d,p) empiricaldispersion=gd3bj scf=xqc pop=npa geom=check

CID_104612582_JID_10827_Energie_anion

-1 2
