%chk=JID_9592.chk
%mem=8GB
%nprocshared=4
# opt freq B3LYP/6-31G(d) empiricaldispersion=gd3bj scf=xqc

CID_103747478_JID_9592_neutraal

0 1
C         -1.66400       -1.54100       -0.03100
N         -0.42566       -0.79228       -0.17814
C          0.23415       -0.84110       -1.39430
C          1.38097       -0.17883       -1.58449
C          1.94019        0.60164       -0.50730
C          1.35362        0.63755        0.69710
C          0.07405       -0.08345        0.91365
O         -0.46507       -0.00886        2.01436
C          3.23027        1.32051       -0.69100
O          4.25595        0.65907       -0.83389
N          3.19734        2.70957       -0.69048
C          1.97519        3.50614       -0.63726
C          4.46901        3.44752       -0.74125
C          4.82135        4.19976        0.55349
O          5.65355        3.44068        1.42987
C          4.96084        2.52804        2.27442
C          4.50030        3.22984        3.51305
C          3.07850        3.71028        3.66506
C          3.56034        2.53253        4.46435
H         -2.36528       -1.23372       -0.81343
H         -1.44595       -2.60887       -0.13264
H         -2.12995       -1.36927        0.94303
H         -0.21238       -1.44253       -2.18103
H          1.91510       -0.22587       -2.52823
H          1.75531        1.17419        1.54594
H          1.79276        3.80253        0.39885
H          2.09473        4.40011       -1.25651
H          1.11192        2.95164       -1.01125
H          5.28881        2.77122       -1.00518
H          4.36869        4.16868       -1.56117
H          5.42589        5.06916        0.27121
H          3.94226        4.58655        1.07737
H          4.14301        2.02943        1.75205
H          5.68039        1.75459        2.56298
H          5.29365        3.82456        3.95285
H          2.91609        4.64598        4.18829
H          2.36950        3.51970        2.86898
H          3.18317        1.55064        4.20070
H          3.72160        2.67121        5.52773

--Link1--
%chk=JID_9592.chk
%mem=8GB
%nprocshared=4
# B3LYP/6-311++G(d,p) empiricaldispersion=gd3bj scf=xqc pop=npa geom=check

CID_103747478_JID_9592_Energie_neutraal

0 1

--Link1--
%chk=JID_9592.chk
%mem=8GB
%nprocshared=4
# B3LYP/6-311++G(d,p) empiricaldispersion=gd3bj scf=xqc pop=npa geom=check

CID_103747478_JID_9592_Energie_kation

1 2

--Link1--
%chk=JID_9592.chk
%mem=8GB
%nprocshared=4
# B3LYP/6-311++G(d,p) empiricaldispersion=gd3bj scf=xqc pop=npa geom=check

CID_103747478_JID_9592_Energie_anion

-1 2
