%chk=JID_9402.chk
%mem=8GB
%nprocshared=4
# opt freq B3LYP/6-31G(d) empiricaldispersion=gd3bj scf=xqc

CID_107354831_JID_9402_neutraal

0 1
C          0.92843       -0.05666        0.04083
C         -0.04712       -1.05111        0.67188
C          0.36729       -1.41396        2.09648
N         -1.41585       -0.54739        0.62547
C         -2.48037       -1.13019        0.00495
C         -3.53279       -0.24252        0.13091
C         -2.99394        0.85900        0.85865
N         -1.71660        0.62434        1.20035
C         -3.63730        2.10581        1.24802
C         -4.73985        2.10314        2.11445
C         -5.34251        3.29203        2.49868
C         -4.84988        4.51094        2.02932
C         -3.73795        4.55480        1.15249
C         -3.14221        3.34486        0.76544
S         -1.82621        3.64481       -0.32551
C         -2.02962        5.33166       -0.25011
C         -3.07888        5.68612        0.56129
C         -4.85645       -0.44655       -0.41304
O         -5.79936        0.32373       -0.27185
H          0.98847        0.87362        0.61659
H          0.61904        0.20200       -0.97792
H          1.93525       -0.48438       -0.01067
H         -0.03606       -1.96755        0.06818
H          0.38491       -0.53366        2.74847
H         -0.33031       -2.13674        2.53377
H          1.36692       -1.86111        2.10649
H         -2.39882       -2.09191       -0.48223
H         -5.13388        1.16145        2.48975
H         -6.20047        3.27511        3.16573
H         -5.32901        5.43655        2.33907
H         -1.37317        5.98504       -0.80761
H         -3.37099        6.71473        0.73177
H         -4.98646       -1.38211       -0.98395

--Link1--
%chk=JID_9402.chk
%mem=8GB
%nprocshared=4
# B3LYP/6-311++G(d,p) empiricaldispersion=gd3bj scf=xqc pop=npa geom=check

CID_107354831_JID_9402_Energie_neutraal

0 1

--Link1--
%chk=JID_9402.chk
%mem=8GB
%nprocshared=4
# B3LYP/6-311++G(d,p) empiricaldispersion=gd3bj scf=xqc pop=npa geom=check

CID_107354831_JID_9402_Energie_kation

1 2

--Link1--
%chk=JID_9402.chk
%mem=8GB
%nprocshared=4
# B3LYP/6-311++G(d,p) empiricaldispersion=gd3bj scf=xqc pop=npa geom=check

CID_107354831_JID_9402_Energie_anion

-1 2
