%chk=JID_8546.chk
%mem=8GB
%nprocshared=4
# opt freq B3LYP/6-31G(d) empiricaldispersion=gd3bj scf=xqc

CID_61349462_JID_8546_neutraal

0 1
C          1.05973       -0.05698        0.05644
C          0.54292        0.49075       -1.28692
C          1.01669       -0.42818       -2.43262
C         -1.00006        0.45222       -1.26881
N          1.06531        1.85615       -1.48333
C          0.40150        3.04760       -1.35869
C          1.31932        4.04923       -1.60864
C          2.51908        3.35145       -1.85914
N          2.37230        2.02827       -1.78095
C          1.10146        5.52103       -1.60455
N          1.58393        6.03387       -0.32766
C          1.24442        7.43818       -0.11747
C         -0.19174        7.63265        0.24258
C         -1.11787        6.74847        0.76739
N         -2.28116        7.44485        0.91699
N         -2.18266        8.73208        0.54690
C         -0.91637        8.84624        0.14195
C         -3.53669        6.94138        1.41765
H          0.68371       -1.06924        0.24301
H          0.74193        0.57888        0.89108
H          2.15476       -0.10128        0.07843
H          0.60339       -1.43785       -2.32751
H          0.70279       -0.03623       -3.40722
H          2.10816       -0.52634       -2.45258
H         -1.40920        1.01853       -0.42432
H         -1.42048        0.87090       -2.19060
H         -1.36829       -0.57604       -1.17415
H         -0.64803        3.10271       -1.11027
H          3.49560        3.75961       -2.08743
H          1.65476        5.97969       -2.43228
H          0.03641        5.72731       -1.76036
H          1.20855        5.47592        0.43550
H          1.85765        7.81634        0.70893
H          1.50758        8.03502       -0.99927
H         -1.04808        5.70357        1.03442
H         -0.56685        9.80931       -0.20885
H         -3.72522        7.39848        2.39197
H         -4.32533        7.20562        0.70859
H         -3.47789        5.85460        1.51698

--Link1--
%chk=JID_8546.chk
%mem=8GB
%nprocshared=4
# B3LYP/6-311++G(d,p) empiricaldispersion=gd3bj scf=xqc pop=npa geom=check

CID_61349462_JID_8546_Energie_neutraal

0 1

--Link1--
%chk=JID_8546.chk
%mem=8GB
%nprocshared=4
# B3LYP/6-311++G(d,p) empiricaldispersion=gd3bj scf=xqc pop=npa geom=check

CID_61349462_JID_8546_Energie_kation

1 2

--Link1--
%chk=JID_8546.chk
%mem=8GB
%nprocshared=4
# B3LYP/6-311++G(d,p) empiricaldispersion=gd3bj scf=xqc pop=npa geom=check

CID_61349462_JID_8546_Energie_anion

-1 2
