%chk=JID_9891.chk
%mem=8GB
%nprocshared=4
# opt freq B3LYP/6-31G(d) empiricaldispersion=gd3bj scf=xqc

CID_79127159_JID_9891_neutraal

0 1
C          1.06313       -0.04165       -0.06542
C          0.70571        1.38852        0.39596
C          1.28092        2.59413       -0.39568
N          0.97573        2.48395       -1.81368
C          1.00835        3.70087       -2.62331
C          0.49872        3.47081       -4.08136
C          1.29148        2.46860       -4.97716
C          1.02397        0.94244       -4.71339
C          0.78797        0.66857       -3.24690
C          1.78961        1.46646       -2.43164
C          2.13075       -0.05669       -5.18188
C          3.37563       -0.30545       -4.29468
C          4.01777       -1.56972       -4.86441
C          2.83898       -2.44729       -5.29597
C          1.61375       -1.51178       -5.39279
C          2.59362       -3.58959       -4.31379
C          2.66928        0.41462       -6.52287
N          3.11604        0.80562       -7.63533
O         -0.19075        0.60553       -5.41171
H          0.53387       -0.34657       -0.96266
H          0.70337       -0.73193        0.70938
H          2.14098       -0.21253       -0.11749
H         -0.38929        1.46908        0.40536
H          1.02604        1.49728        1.43985
H          0.81810        3.49946        0.01622
H          2.36056        2.68530       -0.22248
H          0.35561        4.45394       -2.16533
H          2.01875        4.12819       -2.65134
H          0.52974        4.44747       -4.58196
H         -0.55848        3.17945       -4.05390
H          2.35948        2.70501       -4.90162
H          1.00484        2.68633       -6.01525
H          0.87625       -0.39918       -3.02173
H         -0.25729        0.88465       -2.97767
H          2.62865        1.90106       -2.98543
H          2.33071        0.82395       -1.74619
H          4.08231        0.53138       -4.29407
H          3.11424       -0.53937       -3.26033
H          4.67447       -2.05356       -4.13384
H          4.63678       -1.32109       -5.73483
H          3.05331       -2.88394       -6.27901
H          0.87125       -1.78833       -4.63640
H          1.12280       -1.63546       -6.36653
H          1.73565       -4.19283       -4.62811
H          3.46704       -4.24789       -4.26023
H          2.39311       -3.21289       -3.30471
H         -0.89967        1.19481       -5.09687

--Link1--
%chk=JID_9891.chk
%mem=8GB
%nprocshared=4
# B3LYP/6-311++G(d,p) empiricaldispersion=gd3bj scf=xqc pop=npa geom=check

CID_79127159_JID_9891_Energie_neutraal

0 1

--Link1--
%chk=JID_9891.chk
%mem=8GB
%nprocshared=4
# B3LYP/6-311++G(d,p) empiricaldispersion=gd3bj scf=xqc pop=npa geom=check

CID_79127159_JID_9891_Energie_kation

1 2

--Link1--
%chk=JID_9891.chk
%mem=8GB
%nprocshared=4
# B3LYP/6-311++G(d,p) empiricaldispersion=gd3bj scf=xqc pop=npa geom=check

CID_79127159_JID_9891_Energie_anion

-1 2
