%chk=JID_3034.chk
%mem=8GB
%nprocshared=4
# opt freq B3LYP/6-31G(d) empiricaldispersion=gd3bj scf=xqc

CID_144703094_JID_3034_neutraal

0 1
C          1.04758        0.06557       -0.05862
C          0.33122       -0.41201        1.19544
C          0.59092        0.50058        2.36627
C          1.71228        0.30771        3.18131
C          1.96730        1.17066        4.25033
C          1.11794        2.24987        4.51032
C         -0.01388        2.43072        3.71152
C         -0.27079        1.56905        2.64101
S          1.48569        3.32178        5.88804
C          1.48555        4.96919        5.08715
C          2.87103        5.42338        4.59390
C          3.38064        4.61531        3.39917
C          2.80983        6.90632        4.21034
H          0.71781        1.06971       -0.34622
H          0.84072       -0.61151       -0.89342
H          2.13218        0.09826        0.09056
H         -0.74718       -0.47370        1.00519
H          0.65444       -1.43037        1.44337
H          2.39652       -0.51581        2.98967
H          2.84300        0.99853        4.87191
H         -0.71422        3.23595        3.91564
H         -1.15186        1.73598        2.02534
H          0.74821        5.01999        4.28012
H          1.14134        5.66581        5.86056
H          3.59651        5.32752        5.41214
H          2.64286        4.59204        2.59002
H          4.30319        5.05097        2.99991
H          3.61473        3.58624        3.68329
H          2.49468        7.51687        5.06321
H          3.79304        7.26741        3.89021
H          2.10269        7.07588        3.39108

--Link1--
%chk=JID_3034.chk
%mem=8GB
%nprocshared=4
# B3LYP/6-311++G(d,p) empiricaldispersion=gd3bj scf=xqc pop=npa geom=check

CID_144703094_JID_3034_Energie_neutraal

0 1

--Link1--
%chk=JID_3034.chk
%mem=8GB
%nprocshared=4
# B3LYP/6-311++G(d,p) empiricaldispersion=gd3bj scf=xqc pop=npa geom=check

CID_144703094_JID_3034_Energie_kation

1 2

--Link1--
%chk=JID_3034.chk
%mem=8GB
%nprocshared=4
# B3LYP/6-311++G(d,p) empiricaldispersion=gd3bj scf=xqc pop=npa geom=check

CID_144703094_JID_3034_Energie_anion

-1 2
