%chk=JID_5235.chk
%mem=8GB
%nprocshared=4
# opt freq B3LYP/6-31G(d) empiricaldispersion=gd3bj scf=xqc

CID_116728963_JID_5235_neutraal

0 1
C          0.95039       -0.04464        0.07447
C          0.32445       -0.76529        1.25839
C          0.67928       -0.14479        2.61443
C          0.17518        1.29685        2.83344
C         -1.34207        1.45538        2.76990
N         -2.11545        0.50527        3.33515
C         -3.44049        0.71149        3.28350
C         -4.01345        1.81159        2.69297
C         -3.15428        2.73295        2.12930
N         -1.82334        2.56546        2.17097
N         -3.71231        3.88802        1.55132
C         -2.74028        4.79938        0.96842
O          0.78096        1.86725        4.01521
C          0.33686        1.35176        5.26650
C         -0.48092        2.40763        5.98755
H          0.53046        0.95719       -0.05359
H          0.75875       -0.60244       -0.84789
H          2.03432        0.04536        0.19655
H         -0.76218       -0.80791        1.12656
H          0.67787       -1.80367        1.25540
H          0.29054       -0.80489        3.39935
H          1.76976       -0.15916        2.74255
H          0.58129        1.90721        2.01841
H         -4.05078       -0.05434        3.75234
H         -5.08522        1.95294        2.68965
H         -4.42935        3.61956        0.88409
H         -2.18530        4.32719        0.15033
H         -3.26850        5.66426        0.55432
H         -2.03960        5.17549        1.72194
H         -0.22459        0.41813        5.17551
H          1.23183        1.13361        5.85867
H         -1.38049        2.66727        5.42183
H         -0.78145        2.05528        6.97835
H          0.09813        3.32995        6.10261

--Link1--
%chk=JID_5235.chk
%mem=8GB
%nprocshared=4
# B3LYP/6-311++G(d,p) empiricaldispersion=gd3bj scf=xqc pop=npa geom=check

CID_116728963_JID_5235_Energie_neutraal

0 1

--Link1--
%chk=JID_5235.chk
%mem=8GB
%nprocshared=4
# B3LYP/6-311++G(d,p) empiricaldispersion=gd3bj scf=xqc pop=npa geom=check

CID_116728963_JID_5235_Energie_kation

1 2

--Link1--
%chk=JID_5235.chk
%mem=8GB
%nprocshared=4
# B3LYP/6-311++G(d,p) empiricaldispersion=gd3bj scf=xqc pop=npa geom=check

CID_116728963_JID_5235_Energie_anion

-1 2
