%chk=JID_5932.chk
%mem=8GB
%nprocshared=4
# opt freq B3LYP/6-31G(d) empiricaldispersion=gd3bj scf=xqc

CID_115083384_JID_5932_neutraal

0 1
C         -0.72000        1.26100        0.22400
C         -1.58019        0.05588       -0.14949
C         -1.01538       -1.25250        0.43426
C          0.46802       -1.37694        0.04838
N          1.24869       -0.21978        0.49210
C          0.75072        1.01861       -0.11080
C         -1.18522       -1.36026        1.96355
C         -2.61449       -1.44196        2.36259
N         -3.44420       -2.46206        2.26716
C         -4.63196       -1.96919        2.75798
C         -4.46093       -0.65888        3.13973
O         -3.16935       -0.30988        2.89468
C         -5.85009       -2.81741        2.82576
C         -5.78233       -3.84132        3.95458
O         -5.88407       -3.20673        5.22811
H         -1.07722        2.14667       -0.31394
H         -0.82665        1.47981        1.29314
H         -2.61558        0.22210        0.16590
H         -1.60418       -0.03093       -1.24389
H         -1.55612       -2.08818       -0.03080
H          0.89321       -2.28240        0.49642
H          0.56365       -1.49345       -1.03877
H          2.22424       -0.35024        0.22257
H          0.88922        0.98700       -1.19855
H          1.34664        1.85882        0.26200
H         -0.68768       -2.27114        2.31999
H         -0.70280       -0.52445        2.48228
H         -5.09528        0.10342        3.56763
H         -6.73024       -2.17725        2.96031
H         -5.96603       -3.34042        1.86938
H         -6.62668       -4.53294        3.87196
H         -4.85925       -4.43042        3.92733
H         -5.02688       -2.77428        5.39394

--Link1--
%chk=JID_5932.chk
%mem=8GB
%nprocshared=4
# B3LYP/6-311++G(d,p) empiricaldispersion=gd3bj scf=xqc pop=npa geom=check

CID_115083384_JID_5932_Energie_neutraal

0 1

--Link1--
%chk=JID_5932.chk
%mem=8GB
%nprocshared=4
# B3LYP/6-311++G(d,p) empiricaldispersion=gd3bj scf=xqc pop=npa geom=check

CID_115083384_JID_5932_Energie_kation

1 2

--Link1--
%chk=JID_5932.chk
%mem=8GB
%nprocshared=4
# B3LYP/6-311++G(d,p) empiricaldispersion=gd3bj scf=xqc pop=npa geom=check

CID_115083384_JID_5932_Energie_anion

-1 2
