%chk=JID_5808.chk
%mem=8GB
%nprocshared=4
# opt freq B3LYP/6-31G(d) empiricaldispersion=gd3bj scf=xqc

CID_117220131_JID_5808_neutraal

0 1
C          0.94670        0.05092       -0.06758
C          0.63270        0.75464        1.23757
S          1.54274        2.27982        1.45226
O          1.41317        3.03872        0.21967
O          1.10521        2.87903        2.70108
C          3.26959        1.82175        1.60856
C          3.48655        0.81737        2.70916
C          3.42678        1.20086        4.05557
C          3.66036        0.26299        5.06437
C          3.87422       -1.08995        4.76711
C          4.00246       -1.45470        3.42680
C          3.80138       -0.51628        2.40708
N          4.18214       -2.01265        5.78257
O          3.59159        0.67042        6.37520
C          4.88035        1.11201        6.80724
H          0.70086        0.68321       -0.92655
H          0.36171       -0.87036       -0.14950
H          2.00476       -0.21279       -0.14103
H         -0.42798        1.02704        1.26245
H          0.82817        0.11143        2.09907
H          3.59910        1.43703        0.63841
H          3.83382        2.73848        1.81053
H          3.20487        2.22986        4.33332
H          4.26413       -2.47654        3.16411
H          3.90771       -0.84334        1.37453
H          3.93085       -2.96778        5.55154
H          3.78216       -1.71265        6.67114
H          5.59532        0.28252        6.83002
H          5.26047        1.92413        6.17741
H          4.77710        1.49641        7.82643

--Link1--
%chk=JID_5808.chk
%mem=8GB
%nprocshared=4
# B3LYP/6-311++G(d,p) empiricaldispersion=gd3bj scf=xqc pop=npa geom=check

CID_117220131_JID_5808_Energie_neutraal

0 1

--Link1--
%chk=JID_5808.chk
%mem=8GB
%nprocshared=4
# B3LYP/6-311++G(d,p) empiricaldispersion=gd3bj scf=xqc pop=npa geom=check

CID_117220131_JID_5808_Energie_kation

1 2

--Link1--
%chk=JID_5808.chk
%mem=8GB
%nprocshared=4
# B3LYP/6-311++G(d,p) empiricaldispersion=gd3bj scf=xqc pop=npa geom=check

CID_117220131_JID_5808_Energie_anion

-1 2
