%chk=JID_8715.chk
%mem=8GB
%nprocshared=4
# opt freq B3LYP/6-31G(d) empiricaldispersion=gd3bj scf=xqc

CID_75447871_JID_8715_neutraal

0 1
C          0.93977       -0.07135       -0.03580
C         -0.15559       -1.06724       -0.44642
C         -0.84055       -1.59046        0.82065
C         -1.13919       -0.35217       -1.37960
O          0.55518       -2.12784       -1.13558
C         -0.11055       -3.19201       -1.66535
O         -1.32294       -3.33917       -1.59595
N          0.77234       -4.06962       -2.27222
C          2.16675       -4.18573       -1.87022
C          2.68183       -5.43840       -2.54510
C          1.46956       -6.35296       -2.53857
N          0.31750       -5.41815       -2.75163
S         -0.26260       -5.49638       -4.38132
O          0.68833       -4.79670       -5.21885
O         -0.58063       -6.88533       -4.64050
N         -1.69815       -4.65207       -4.36507
C         -1.70299       -3.20312       -4.56137
C         -2.81915       -5.21344       -3.60811
H          0.52783        0.78753        0.50441
H          1.47903        0.29917       -0.91551
H          1.68751       -0.55589        0.60302
H         -1.23514       -0.76905        1.42840
H         -1.67690       -2.25667        0.58896
H         -0.13828       -2.16948        1.43094
H         -0.65152       -0.07700       -2.32151
H         -1.99174       -0.98597       -1.64104
H         -1.53951        0.55578       -0.91564
H          2.20835       -4.27048       -0.77802
H          2.71794       -3.29083       -2.17456
H          2.97371       -5.21310       -3.57774
H          3.54624       -5.87167       -2.03483
H          1.55181       -7.14418       -3.28759
H          1.33894       -6.82946       -1.56023
H         -0.70933       -2.76257       -4.44628
H         -2.05147       -2.98451       -5.57544
H         -2.37071       -2.69716       -3.85826
H         -3.09879       -6.18861       -4.01825
H         -2.57076       -5.33128       -2.55103
H         -3.70356       -4.57281       -3.68410

--Link1--
%chk=JID_8715.chk
%mem=8GB
%nprocshared=4
# B3LYP/6-311++G(d,p) empiricaldispersion=gd3bj scf=xqc pop=npa geom=check

CID_75447871_JID_8715_Energie_neutraal

0 1

--Link1--
%chk=JID_8715.chk
%mem=8GB
%nprocshared=4
# B3LYP/6-311++G(d,p) empiricaldispersion=gd3bj scf=xqc pop=npa geom=check

CID_75447871_JID_8715_Energie_kation

1 2

--Link1--
%chk=JID_8715.chk
%mem=8GB
%nprocshared=4
# B3LYP/6-311++G(d,p) empiricaldispersion=gd3bj scf=xqc pop=npa geom=check

CID_75447871_JID_8715_Energie_anion

-1 2
