%chk=JID_7937.chk
%mem=8GB
%nprocshared=4
# opt freq B3LYP/6-31G(d) empiricaldispersion=gd3bj scf=xqc

CID_103387519_JID_7937_neutraal

0 1
C          1.07373       -0.03635        0.05695
C          0.25363       -1.32571       -0.02873
C          0.61595       -2.24452        1.14147
C         -1.26249       -1.05302       -0.02488
C         -1.78873       -0.23483       -1.20987
C         -1.56354       -0.85273       -2.59706
C         -2.15691       -2.26497       -2.81372
C         -3.67386       -2.25847       -2.61236
N         -1.78824       -2.65808       -4.18077
C         -1.58226       -4.10002       -4.40976
C         -2.88253       -4.88637       -4.70895
C         -3.88987       -4.30031       -5.71122
C         -3.44721       -4.19862       -7.16955
N         -3.19017       -5.50329       -7.76147
C         -0.51931       -4.30286       -5.52668
O          0.82714       -4.35554       -5.03709
C          1.30009       -3.11235       -4.53823
H          0.79908        0.55161        0.93918
H          0.92663        0.58778       -0.82956
H          2.14395       -0.26105        0.12080
H          0.52700       -1.84962       -0.95198
H          0.37374       -1.77924        2.10304
H          0.07036       -3.19183        1.07523
H          1.68628       -2.47668        1.13714
H         -1.80317       -2.00610        0.01980
H         -1.52617       -0.51889        0.89768
H         -2.86055       -0.05871       -1.06072
H         -1.33153        0.76163       -1.19697
H         -1.98976       -0.16326       -3.33935
H         -0.48494       -0.87539       -2.79880
H         -1.69621       -2.94745       -2.09125
H         -4.16526       -1.55474       -3.29334
H         -4.11263       -3.24489       -2.77368
H         -3.93552       -1.97286       -1.58886
H         -2.41700       -2.24660       -4.86580
H         -1.14571       -4.54227       -3.50398
H         -2.62221       -5.90786       -5.01406
H         -3.41615       -5.01816       -3.75961
H         -4.79400       -4.92369       -5.67150
H         -4.21395       -3.30895       -5.37583
H         -4.25209       -3.72164       -7.74067
H         -2.57144       -3.55433       -7.27384
H         -2.92955       -5.38837       -8.74047
H         -2.39913       -5.95856       -7.31068
H         -0.67723       -5.26935       -6.01507
H         -0.58561       -3.53891       -6.30956
H          1.08849       -2.29670       -5.23607
H          0.86939       -2.90513       -3.55587
H          2.38423       -3.18849       -4.41576

--Link1--
%chk=JID_7937.chk
%mem=8GB
%nprocshared=4
# B3LYP/6-311++G(d,p) empiricaldispersion=gd3bj scf=xqc pop=npa geom=check

CID_103387519_JID_7937_Energie_neutraal

0 1

--Link1--
%chk=JID_7937.chk
%mem=8GB
%nprocshared=4
# B3LYP/6-311++G(d,p) empiricaldispersion=gd3bj scf=xqc pop=npa geom=check

CID_103387519_JID_7937_Energie_kation

1 2

--Link1--
%chk=JID_7937.chk
%mem=8GB
%nprocshared=4
# B3LYP/6-311++G(d,p) empiricaldispersion=gd3bj scf=xqc pop=npa geom=check

CID_103387519_JID_7937_Energie_anion

-1 2
