%chk=JID_6402.chk
%mem=8GB
%nprocshared=4
# opt freq B3LYP/6-31G(d) empiricaldispersion=gd3bj scf=xqc

CID_151500525_JID_6402_neutraal

0 1
C          0.97338        0.03110        0.09124
C          0.37227       -1.36066        0.39335
C          1.13230       -1.94921        1.59524
C         -1.10336       -1.15428        0.78381
N          0.42009       -2.20956       -0.80104
C          0.36706       -3.66759       -0.69760
N          0.78262       -4.13424       -2.01250
C          1.27259       -2.97996       -2.61910
N          1.09425       -1.85599       -1.95019
C          1.92923       -2.97190       -3.98633
N          0.97748       -2.48836       -5.00161
N         -0.13775       -3.03953       -5.02310
N         -1.15606       -3.55051       -5.05727
C          1.39105       -5.43469       -2.11891
O         -0.89141       -4.20437       -0.31331
C         -1.92718       -4.00184       -1.26471
H          0.89136        0.69369        0.96109
H          0.45392        0.52355       -0.73946
H          2.03711       -0.03868       -0.16499
H          1.13054       -1.25029        2.44028
H          0.67479       -2.87786        1.95418
H          2.17814       -2.15619        1.34209
H         -1.68312       -0.74506       -0.05240
H         -1.57905       -2.08947        1.09691
H         -1.19569       -0.45081        1.61960
H          1.10789       -4.01849        0.02998
H          2.78857       -2.29447       -3.95688
H          2.29188       -3.96744       -4.25588
H          1.36628       -5.78849       -3.15408
H          2.43263       -5.40911       -1.78240
H          0.85058       -6.16888       -1.51231
H         -2.02591       -2.94965       -1.54520
H         -1.76271       -4.61850       -2.15299
H         -2.86806       -4.32152       -0.80773

--Link1--
%chk=JID_6402.chk
%mem=8GB
%nprocshared=4
# B3LYP/6-311++G(d,p) empiricaldispersion=gd3bj scf=xqc pop=npa geom=check

CID_151500525_JID_6402_Energie_neutraal

0 1

--Link1--
%chk=JID_6402.chk
%mem=8GB
%nprocshared=4
# B3LYP/6-311++G(d,p) empiricaldispersion=gd3bj scf=xqc pop=npa geom=check

CID_151500525_JID_6402_Energie_kation

1 2

--Link1--
%chk=JID_6402.chk
%mem=8GB
%nprocshared=4
# B3LYP/6-311++G(d,p) empiricaldispersion=gd3bj scf=xqc pop=npa geom=check

CID_151500525_JID_6402_Energie_anion

-1 2
