%chk=JID_1445.chk
%mem=8GB
%nprocshared=4
# opt freq B3LYP/6-31G(d) empiricaldispersion=gd3bj scf=xqc

CID_21856062_JID_1445_neutraal

0 1
C          0.92891       -0.06643       -0.02308
C          0.29461       -1.16200        0.83032
C          0.91710       -1.23660        2.22583
C         -1.22908       -1.14154        0.84817
C         -1.88237       -2.24867        0.43176
C         -2.05281        0.05844        1.31960
C         -2.42647        1.06725        0.21634
C         -1.73543        2.41611        0.29929
C         -1.68127        2.88752        1.73871
C         -0.96857        1.84553        2.57635
O         -1.62169        0.58559        2.57032
H          0.90329        0.90789        0.46472
H          0.43167        0.01865       -0.99517
H          1.98346       -0.29816       -0.21185
H          0.59821       -2.09942        0.33972
H          0.82489       -0.30182        2.78118
H          0.45354       -2.03088        2.82122
H          1.98697       -1.46227        2.15146
H         -2.96714       -2.30541        0.42169
H         -1.35518       -3.13593        0.09364
H         -3.02296       -0.38115        1.59698
H         -3.50490        1.26264        0.30851
H         -2.29896        0.63572       -0.78369
H         -0.72390        2.34921       -0.11283
H         -2.27304        3.14723       -0.31533
H         -1.15885        3.84781        1.80226
H         -2.70113        3.03417        2.11386
H          0.06689        1.72998        2.24989
H         -0.92760        2.18149        3.61793

--Link1--
%chk=JID_1445.chk
%mem=8GB
%nprocshared=4
# B3LYP/6-311++G(d,p) empiricaldispersion=gd3bj scf=xqc pop=npa geom=check

CID_21856062_JID_1445_Energie_neutraal

0 1

--Link1--
%chk=JID_1445.chk
%mem=8GB
%nprocshared=4
# B3LYP/6-311++G(d,p) empiricaldispersion=gd3bj scf=xqc pop=npa geom=check

CID_21856062_JID_1445_Energie_kation

1 2

--Link1--
%chk=JID_1445.chk
%mem=8GB
%nprocshared=4
# B3LYP/6-311++G(d,p) empiricaldispersion=gd3bj scf=xqc pop=npa geom=check

CID_21856062_JID_1445_Energie_anion

-1 2
