%chk=JID_7780.chk
%mem=8GB
%nprocshared=4
# opt freq B3LYP/6-31G(d) empiricaldispersion=gd3bj scf=xqc

CID_15470847_JID_7780_neutraal

0 1
C          1.02639       -0.09434        0.02011
C          0.48298       -0.64175       -1.32998
C          0.89599       -2.12058       -1.32806
C         -1.06379       -0.61841       -1.25643
C          0.90122        0.27159       -2.53268
C          1.25953        0.03996       -3.83931
C          1.33498        1.32578       -4.70103
S          1.51253        2.65495       -3.51729
O          2.92573        2.87104       -3.25566
O          0.63626        3.77163       -3.81855
C          0.82993        1.76267       -2.16223
S         -0.07187        1.46733       -5.88833
C         -1.50470        1.43474       -4.78506
C          1.60873       -1.28671       -4.59255
C          2.65586       -2.12971       -3.82159
C          0.32482       -2.09532       -4.86930
C          2.28145       -1.07933       -5.98608
H          0.81019       -0.78028        0.84860
H          0.56549        0.85940        0.29972
H          2.11355        0.04038       -0.01885
H          0.51351       -2.63325       -0.43490
H          0.48486       -2.67741       -2.16729
H          1.98267       -2.23117       -1.28897
H         -1.45630        0.39523       -1.12154
H         -1.51043       -1.02910       -2.16886
H         -1.43109       -1.21573       -0.41327
H          2.26480        1.36433       -5.27506
H          1.44791        2.02231       -1.30053
H         -0.20056        2.08889       -2.00762
H         -1.56159        0.48973       -4.24158
H         -1.49710        2.27185       -4.08573
H         -2.40966        1.52044       -5.39360
H          3.18018       -1.53952       -3.06265
H          2.21684       -3.01751       -3.36147
H          3.44099       -2.52652       -4.47788
H         -0.28408       -1.62450       -5.64921
H          0.56348       -3.10787       -5.21503
H         -0.31879       -2.18719       -3.99319
H          1.63779       -0.56677       -6.70402
H          3.22133       -0.52176       -5.90057
H          2.52252       -2.04523       -6.44974

--Link1--
%chk=JID_7780.chk
%mem=8GB
%nprocshared=4
# B3LYP/6-311++G(d,p) empiricaldispersion=gd3bj scf=xqc pop=npa geom=check

CID_15470847_JID_7780_Energie_neutraal

0 1

--Link1--
%chk=JID_7780.chk
%mem=8GB
%nprocshared=4
# B3LYP/6-311++G(d,p) empiricaldispersion=gd3bj scf=xqc pop=npa geom=check

CID_15470847_JID_7780_Energie_kation

1 2

--Link1--
%chk=JID_7780.chk
%mem=8GB
%nprocshared=4
# B3LYP/6-311++G(d,p) empiricaldispersion=gd3bj scf=xqc pop=npa geom=check

CID_15470847_JID_7780_Energie_anion

-1 2
