%chk=JID_7435.chk
%mem=8GB
%nprocshared=4
# opt freq B3LYP/6-31G(d) empiricaldispersion=gd3bj scf=xqc

CID_102508_JID_7435_neutraal

0 1
C          1.06770        0.07344        0.00481
C          0.56716        0.29954       -1.41419
C          1.30082       -0.54592       -2.45741
C          1.11761       -2.06162       -2.32508
C         -0.32295       -2.57554       -2.46611
C         -1.03415       -2.22097       -3.79341
C         -0.25947       -2.68527       -5.05002
C          0.15777       -4.16131       -5.12968
C         -0.99104       -5.15438       -5.19447
N         -2.39230       -2.79058       -3.77321
C         -3.35180       -2.02881       -4.57294
C         -4.61119       -2.83716       -4.91322
S         -5.70079       -3.15493       -3.49897
S         -4.77649       -4.76831       -2.57885
O         -4.47269       -5.76148       -3.58483
O         -3.78183       -4.25092       -1.66649
O         -5.93879       -5.43880       -1.68641
H          0.84434       -0.94007        0.35055
H          0.57950        0.77294        0.69098
H          2.14853        0.23278        0.07125
H         -0.51176        0.11691       -1.45894
H          0.71310        1.35713       -1.66571
H          0.98483       -0.22311       -3.45584
H          2.37398       -0.32392       -2.39808
H          1.75263       -2.54951       -3.07341
H          1.50811       -2.39185       -1.35516
H         -0.30911       -3.66533       -2.33334
H         -0.91432       -2.18704       -1.62661
H         -1.12152       -1.12752       -3.82960
H         -0.83417       -2.44059       -5.95200
H          0.65364       -2.08172       -5.13045
H          0.76111       -4.28524       -6.03792
H          0.81511       -4.42248       -4.29386
H         -1.71892       -4.87201       -5.96125
H         -0.60935       -6.15028       -5.44285
H         -1.50339       -5.23855       -4.23237
H         -2.72219       -2.85515       -2.80358
H         -3.61887       -1.09877       -4.05634
H         -2.89986       -1.73856       -5.52829
H         -5.20040       -2.26269       -5.63676
H         -4.34833       -3.77955       -5.40549
H         -6.07534       -6.34704       -2.02810

--Link1--
%chk=JID_7435.chk
%mem=8GB
%nprocshared=4
# B3LYP/6-311++G(d,p) empiricaldispersion=gd3bj scf=xqc pop=npa geom=check

CID_102508_JID_7435_Energie_neutraal

0 1

--Link1--
%chk=JID_7435.chk
%mem=8GB
%nprocshared=4
# B3LYP/6-311++G(d,p) empiricaldispersion=gd3bj scf=xqc pop=npa geom=check

CID_102508_JID_7435_Energie_kation

1 2

--Link1--
%chk=JID_7435.chk
%mem=8GB
%nprocshared=4
# B3LYP/6-311++G(d,p) empiricaldispersion=gd3bj scf=xqc pop=npa geom=check

CID_102508_JID_7435_Energie_anion

-1 2
