%chk=JID_9513.chk
%mem=8GB
%nprocshared=4
# opt freq B3LYP/6-31G(d) empiricaldispersion=gd3bj scf=xqc

CID_61641114_JID_9513_neutraal

0 1
C          1.05092       -0.08128       -0.02830
C          0.62741        0.79901       -1.19417
C          1.15031        0.31826       -2.55099
C          0.70613       -1.08547       -2.97758
C         -0.81292       -1.22843       -3.08937
C         -1.26135       -2.56687       -3.68868
C         -0.77886       -3.80410       -2.93334
O         -1.05591       -3.64485       -1.54297
C         -0.83623       -4.84572       -0.77389
C          0.63697       -5.23852       -0.77084
C          1.60576       -4.41767       -0.19383
C          2.94234       -4.80291       -0.25497
C          3.28162       -5.98839       -0.89323
C          2.26558       -6.74191       -1.45403
N          0.96125       -6.39262       -1.41704
C         -1.41742       -4.60687        0.66270
C         -2.90449       -4.17673        0.63194
C         -3.87046       -5.21583        0.07658
N         -1.23845       -5.74425        1.58379
H          0.59097       -1.07173       -0.08975
H          0.73700        0.37101        0.91788
H          2.13822       -0.20354       -0.00202
H         -0.46485        0.88030       -1.21281
H          1.00781        1.81283       -1.01993
H          0.83545        1.03747       -3.31744
H          2.24709        0.34441       -2.53743
H          1.15929       -1.30540       -3.95223
H          1.10780       -1.82370       -2.27550
H         -1.27469       -1.10608       -2.10313
H         -1.20755       -0.42257       -3.72049
H         -2.35868       -2.57042       -3.69418
H         -0.93916       -2.63528       -4.73438
H         -1.29725       -4.68764       -3.32346
H          0.29671       -3.93562       -3.09012
H         -1.40396       -5.66051       -1.24194
H          1.32862       -3.48788        0.29061
H          3.71107       -4.17992        0.19281
H          4.31272       -6.31702       -0.95429
H          2.47956       -7.67528       -1.96618
H         -0.87971       -3.75861        1.10601
H         -3.22282       -3.91924        1.65079
H         -3.00790       -3.25382        0.04826
H         -3.83860       -6.14517        0.65269
H         -4.89503       -4.83229        0.12447
H         -3.65525       -5.44704       -0.97028
H         -1.79219       -5.60228        2.42674
H         -1.57756       -6.60189        1.14889

--Link1--
%chk=JID_9513.chk
%mem=8GB
%nprocshared=4
# B3LYP/6-311++G(d,p) empiricaldispersion=gd3bj scf=xqc pop=npa geom=check

CID_61641114_JID_9513_Energie_neutraal

0 1

--Link1--
%chk=JID_9513.chk
%mem=8GB
%nprocshared=4
# B3LYP/6-311++G(d,p) empiricaldispersion=gd3bj scf=xqc pop=npa geom=check

CID_61641114_JID_9513_Energie_kation

1 2

--Link1--
%chk=JID_9513.chk
%mem=8GB
%nprocshared=4
# B3LYP/6-311++G(d,p) empiricaldispersion=gd3bj scf=xqc pop=npa geom=check

CID_61641114_JID_9513_Energie_anion

-1 2
