%chk=JID_9171.chk
%mem=8GB
%nprocshared=4
# opt freq B3LYP/6-31G(d) empiricaldispersion=gd3bj scf=xqc

CID_112663280_JID_9171_neutraal

0 1
C          0.93977       -0.06561        0.04547
C         -0.27072       -0.65997       -0.65684
C         -0.09553       -2.13575       -1.04196
C         -0.08395       -3.17684        0.06392
C         -0.49184       -2.92353        1.38072
C         -0.50671       -3.95806        2.32820
C         -0.15777       -5.26248        1.97307
C          0.25398       -5.52510        0.67035
C          0.29216       -4.49289       -0.27093
S         -1.07373       -3.61216        3.97912
O         -2.03588       -2.53536        3.88001
O         -1.42039       -4.86484        4.61753
N          0.34078       -3.01309        4.75457
C          1.40982       -4.02841        4.92878
C          0.03259       -2.28990        6.03163
C          1.09530       -1.24802        6.40388
S          1.18739        0.19385        5.28182
C          2.18149       -0.51031        3.94538
O         -1.16606       -2.46060       -1.93650
H          1.15402       -0.57363        0.98830
H          0.76481        0.99212        0.26653
H          1.82991       -0.13416       -0.58811
H         -1.17105       -0.51948       -0.04703
H         -0.45374       -0.07924       -1.57084
H          0.83543       -2.22942       -1.61511
H         -0.81486       -1.93067        1.68668
H         -0.20800       -6.07186        2.69765
H          0.52974       -6.53575        0.37813
H          0.59480       -4.72360       -1.29262
H          2.30648       -3.57060        5.35482
H          1.08718       -4.83304        5.59604
H          1.71065       -4.44723        3.96614
H         -0.93504       -1.78040        5.96695
H         -0.05068       -3.02398        6.84281
H          0.83999       -0.84596        7.39080
H          2.09057       -1.69104        6.50144
H          3.06644       -1.01463        4.34187
H          1.59368       -1.20583        3.34493
H          2.51483        0.29899        3.28977
H         -1.86278       -2.89645       -1.41552

--Link1--
%chk=JID_9171.chk
%mem=8GB
%nprocshared=4
# B3LYP/6-311++G(d,p) empiricaldispersion=gd3bj scf=xqc pop=npa geom=check

CID_112663280_JID_9171_Energie_neutraal

0 1

--Link1--
%chk=JID_9171.chk
%mem=8GB
%nprocshared=4
# B3LYP/6-311++G(d,p) empiricaldispersion=gd3bj scf=xqc pop=npa geom=check

CID_112663280_JID_9171_Energie_kation

1 2

--Link1--
%chk=JID_9171.chk
%mem=8GB
%nprocshared=4
# B3LYP/6-311++G(d,p) empiricaldispersion=gd3bj scf=xqc pop=npa geom=check

CID_112663280_JID_9171_Energie_anion

-1 2
