%chk=JID_6820.chk
%mem=8GB
%nprocshared=4
# opt freq B3LYP/6-31G(d) empiricaldispersion=gd3bj scf=xqc

CID_106925864_JID_6820_neutraal

0 1
C          2.26500        0.12100        0.01300
C          0.86001       -0.18853       -0.31834
C          0.06940        0.31837       -1.32168
O         -1.14891       -0.28235       -1.24538
C         -1.04122       -1.13577       -0.18005
N          0.13883       -1.10869        0.40675
S         -2.33602       -2.15589        0.36795
C         -3.77942       -1.08699        0.07473
C         -4.10299       -0.17543        1.27093
N         -3.12160        0.89904        1.45743
C         -3.34898        1.69622        2.67369
C         -4.66463        2.48484        2.64806
C         -4.75687        3.40069        3.86253
O         -3.63727        4.28104        3.92702
C         -2.40363        3.57575        4.04697
C         -2.17584        2.67237        2.84282
H          2.51859       -0.23853        1.01511
H          2.93925       -0.35819       -0.70335
H          2.44135        1.20082       -0.01375
H          0.20189        1.04302       -2.11140
H         -3.66559       -0.50557       -0.84641
H         -4.63295       -1.75565       -0.08416
H         -5.08625        0.26669        1.07558
H         -4.19150       -0.78072        2.18174
H         -2.18805        0.48596        1.51335
H         -3.35379        1.02283        3.54167
H         -4.70645        3.09412        1.73604
H         -5.53108        1.81529        2.64165
H         -5.66030        4.01531        3.79602
H         -4.81980        2.82297        4.79241
H         -2.39988        3.00325        4.98196
H         -1.60144        4.31778        4.11169
H         -1.23059        2.12970        2.96117
H         -2.08832        3.29648        1.94336

--Link1--
%chk=JID_6820.chk
%mem=8GB
%nprocshared=4
# B3LYP/6-311++G(d,p) empiricaldispersion=gd3bj scf=xqc pop=npa geom=check

CID_106925864_JID_6820_Energie_neutraal

0 1

--Link1--
%chk=JID_6820.chk
%mem=8GB
%nprocshared=4
# B3LYP/6-311++G(d,p) empiricaldispersion=gd3bj scf=xqc pop=npa geom=check

CID_106925864_JID_6820_Energie_kation

1 2

--Link1--
%chk=JID_6820.chk
%mem=8GB
%nprocshared=4
# B3LYP/6-311++G(d,p) empiricaldispersion=gd3bj scf=xqc pop=npa geom=check

CID_106925864_JID_6820_Energie_anion

-1 2
