%chk=JID_10995.chk
%mem=8GB
%nprocshared=4
# opt freq B3LYP/6-31G(d) empiricaldispersion=gd3bj scf=xqc

CID_79849022_JID_10995_neutraal

0 1
C          0.33400        1.00600       -0.17300
C          0.80316       -0.26972        0.53910
C         -0.19069       -1.08577       -0.32726
C         -0.95471        0.25838       -0.55450
C         -0.96694       -2.11938        0.50622
C         -2.22333       -2.62928       -0.14287
O         -2.54167       -2.51212       -1.31377
O         -3.00904       -3.30104        0.72019
N          0.22759       -1.70844       -1.61335
C          1.34028       -1.67796       -2.41484
O          1.30837       -2.21504       -3.52041
C          2.57945       -1.00798       -2.01645
C          3.45595       -1.62325       -1.11712
C          4.63205       -0.95698       -0.81195
C          4.94572        0.26080       -1.40088
C          6.24632        0.74301       -0.87352
O          6.73916       -0.33552       -0.04569
C          5.71094       -1.33708        0.13241
C          4.10507        0.85637       -2.32725
C          2.91393        0.20422       -2.64789
H          0.93904        1.30332       -1.03269
H          0.19710        1.87931        0.47068
H          1.86513       -0.48831        0.49273
H          0.54920       -0.25423        1.60872
H         -1.78110        0.43688        0.14409
H         -1.31541        0.45019       -1.56975
H         -0.32478       -2.98142        0.72203
H         -1.26285       -1.67365        1.46459
H         -3.77216       -3.59351        0.17789
H         -0.52197       -2.16743       -2.13723
H          3.21399       -2.58078       -0.66850
H          6.12409        1.63335       -0.24987
H          6.97261        0.92926       -1.66917
H          6.13792       -2.31666       -0.09750
H          5.36874       -1.30131        1.17074
H          4.36315        1.79908       -2.79957
H          2.23988        0.63373       -3.38594

--Link1--
%chk=JID_10995.chk
%mem=8GB
%nprocshared=4
# B3LYP/6-311++G(d,p) empiricaldispersion=gd3bj scf=xqc pop=npa geom=check

CID_79849022_JID_10995_Energie_neutraal

0 1

--Link1--
%chk=JID_10995.chk
%mem=8GB
%nprocshared=4
# B3LYP/6-311++G(d,p) empiricaldispersion=gd3bj scf=xqc pop=npa geom=check

CID_79849022_JID_10995_Energie_kation

1 2

--Link1--
%chk=JID_10995.chk
%mem=8GB
%nprocshared=4
# B3LYP/6-311++G(d,p) empiricaldispersion=gd3bj scf=xqc pop=npa geom=check

CID_79849022_JID_10995_Energie_anion

-1 2
