%chk=JID_6296.chk
%mem=8GB
%nprocshared=4
# opt freq B3LYP/6-31G(d) empiricaldispersion=gd3bj scf=xqc

CID_103023526_JID_6296_neutraal

0 1
C          1.06993       -0.06800       -0.02204
C          0.27024       -0.51311       -1.24830
C          0.05366       -2.02906       -1.19602
C         -1.09109        0.20357       -1.35323
C         -1.03002        1.73438       -1.46715
C         -0.53031        2.18762       -2.85196
O         -1.30707        2.31682       -3.80412
C          0.93986        2.51219       -3.02303
C          1.26910        3.92465       -2.54984
C          1.81999        3.94971       -1.16034
C          1.24183        4.37027        0.02143
C          2.21022        4.13170        1.00998
N          3.32803        3.61101        0.50475
N          3.08937        3.54311       -0.81795
C          4.12877        3.02652       -1.67850
N         -2.40307        2.26307       -1.28428
H          0.49208       -0.20218        0.89857
H          1.36201        0.98218       -0.09113
H          1.99247       -0.65133        0.07133
H          0.85960       -0.30519       -2.14740
H         -0.52566       -2.31893       -0.31282
H         -0.48422       -2.37614       -2.08462
H          1.01234       -2.55770       -1.16077
H         -1.63031       -0.20120       -2.22117
H         -1.68593       -0.06595       -0.46899
H         -0.41448        2.17254       -0.68265
H          1.55137        1.74607       -2.54242
H          1.14720        2.43976       -4.09846
H          2.00676        4.37182       -3.22705
H          0.38185        4.56820       -2.60151
H          0.24918        4.77656        0.15678
H          2.14720        4.30900        2.07596
H          5.10301        3.28740       -1.25633
H          4.01683        1.94081       -1.73031
H          4.03841        3.46938       -2.67191
H         -2.38552        3.27586       -1.40921
H         -2.96545        1.92984       -2.07446

--Link1--
%chk=JID_6296.chk
%mem=8GB
%nprocshared=4
# B3LYP/6-311++G(d,p) empiricaldispersion=gd3bj scf=xqc pop=npa geom=check

CID_103023526_JID_6296_Energie_neutraal

0 1

--Link1--
%chk=JID_6296.chk
%mem=8GB
%nprocshared=4
# B3LYP/6-311++G(d,p) empiricaldispersion=gd3bj scf=xqc pop=npa geom=check

CID_103023526_JID_6296_Energie_kation

1 2

--Link1--
%chk=JID_6296.chk
%mem=8GB
%nprocshared=4
# B3LYP/6-311++G(d,p) empiricaldispersion=gd3bj scf=xqc pop=npa geom=check

CID_103023526_JID_6296_Energie_anion

-1 2
