%chk=JID_9346.chk
%mem=8GB
%nprocshared=4
# opt freq B3LYP/6-31G(d) empiricaldispersion=gd3bj scf=xqc

CID_43797310_JID_9346_neutraal

0 1
C          0.95454        0.04813        0.07495
C          0.45834        0.46235       -1.30162
C          0.83878       -0.53607       -2.35346
C          1.98006       -0.56863       -3.12510
C          1.98701       -1.66745       -4.03496
C          0.84972       -2.44967       -3.93748
S         -0.20529       -1.83572       -2.72846
C          0.44474       -3.64479       -4.68280
O         -0.58372       -4.28045       -4.43052
C          1.35516       -4.11386       -5.82973
N          0.80018       -3.76607       -7.15893
C          0.83870       -2.32044       -7.41944
C          0.22211       -1.97634       -8.77730
C          0.92406       -2.74207       -9.91040
C          0.90272       -4.24540       -9.59278
C          1.50321       -4.51394       -8.21041
N          0.39439       -2.34850      -11.23466
C          1.28883       -2.74478      -12.32322
C         -0.96468       -2.81387      -11.51076
H          0.51870       -0.90760        0.38508
H          0.67990        0.80255        0.81902
H          2.04450       -0.06013        0.08798
H         -0.62944        0.59880       -1.27429
H          0.88653        1.43894       -1.55897
H          2.77426        0.16463       -3.04560
H          2.80030       -1.84909       -4.72573
H          2.38351       -3.75966       -5.71282
H          1.40226       -5.20667       -5.72578
H          1.86958       -1.94558       -7.37674
H          0.26283       -1.78122       -6.65987
H          0.30493       -0.89534       -8.94505
H         -0.84779       -2.21471       -8.74337
H          1.97401       -2.41507       -9.88103
H         -0.12332       -4.63306       -9.61210
H          1.47452       -4.80742      -10.33949
H          1.42469       -5.59054       -8.01518
H          2.57219       -4.26295       -8.21673
H          1.35342       -3.83179      -12.43976
H          0.94391       -2.32181      -13.27370
H          2.29883       -2.35261      -12.16047
H         -1.02837       -3.90416      -11.59240
H         -1.67237       -2.47932      -10.74695
H         -1.32238       -2.38907      -12.45612

--Link1--
%chk=JID_9346.chk
%mem=8GB
%nprocshared=4
# B3LYP/6-311++G(d,p) empiricaldispersion=gd3bj scf=xqc pop=npa geom=check

CID_43797310_JID_9346_Energie_neutraal

0 1

--Link1--
%chk=JID_9346.chk
%mem=8GB
%nprocshared=4
# B3LYP/6-311++G(d,p) empiricaldispersion=gd3bj scf=xqc pop=npa geom=check

CID_43797310_JID_9346_Energie_kation

1 2

--Link1--
%chk=JID_9346.chk
%mem=8GB
%nprocshared=4
# B3LYP/6-311++G(d,p) empiricaldispersion=gd3bj scf=xqc pop=npa geom=check

CID_43797310_JID_9346_Energie_anion

-1 2
