%chk=JID_9397.chk
%mem=8GB
%nprocshared=4
# opt freq B3LYP/6-31G(d) empiricaldispersion=gd3bj scf=xqc

CID_114129526_JID_9397_neutraal

0 1
C          2.49600       -0.00700       -0.12600
C          1.04113        0.00286        0.34088
C          0.33772        1.28758       -0.10999
C         -1.12825        1.29623        0.30966
C         -1.86552        0.06092       -0.19802
C         -1.18252       -1.24306        0.24840
C          0.29889       -1.23931       -0.17459
C         -1.94500       -2.45198       -0.33059
N         -1.51716       -3.69005        0.31693
C         -2.01340       -4.92165       -0.17204
C         -1.33297       -6.10354        0.22059
C         -1.71600       -7.34021       -0.30308
C         -2.86243       -7.44046       -1.08970
C         -3.61270       -6.29783       -1.38632
C         -3.19591       -5.04521       -0.91145
C         -4.84546       -6.46423       -2.20198
O         -5.41201       -7.54570       -2.29800
N         -5.30948       -5.37318       -2.88344
N         -0.14267       -6.00011        0.98304
H          2.56416        0.01688       -1.21891
H          3.03537        0.86164        0.26612
H          3.01057       -0.90736        0.22582
H          1.04032       -0.02567        1.43876
H          0.84202        2.16158        0.31908
H          0.40256        1.38711       -1.20112
H         -1.61542        2.19915       -0.07559
H         -1.19613        1.33895        1.40362
H         -1.91764        0.09670       -1.29391
H         -2.89855        0.08600        0.16922
H         -1.22599       -1.29388        1.34534
H          0.36808       -1.28250       -1.26965
H          0.80344       -2.13376        0.20814
H         -3.01640       -2.30589       -0.14846
H         -1.78522       -2.50865       -1.41470
H         -0.49982       -3.78337        0.34192
H         -1.14264       -8.23580       -0.08190
H         -3.17326       -8.41312       -1.46615
H         -3.80032       -4.16998       -1.11435
H         -4.75283       -4.54565       -3.03548
H         -6.08520       -5.53912       -3.51208
H          0.08501       -6.87093        1.45406
H         -0.24837       -5.24462        1.66035

--Link1--
%chk=JID_9397.chk
%mem=8GB
%nprocshared=4
# B3LYP/6-311++G(d,p) empiricaldispersion=gd3bj scf=xqc pop=npa geom=check

CID_114129526_JID_9397_Energie_neutraal

0 1

--Link1--
%chk=JID_9397.chk
%mem=8GB
%nprocshared=4
# B3LYP/6-311++G(d,p) empiricaldispersion=gd3bj scf=xqc pop=npa geom=check

CID_114129526_JID_9397_Energie_kation

1 2

--Link1--
%chk=JID_9397.chk
%mem=8GB
%nprocshared=4
# B3LYP/6-311++G(d,p) empiricaldispersion=gd3bj scf=xqc pop=npa geom=check

CID_114129526_JID_9397_Energie_anion

-1 2
