%chk=JID_2240.chk
%mem=8GB
%nprocshared=4
# opt freq B3LYP/6-31G(d) empiricaldispersion=gd3bj scf=xqc

CID_112571382_JID_2240_neutraal

0 1
C          1.00170        0.07792        0.06266
C          0.22771       -0.58198        1.19202
C          0.09313        0.26886        2.45411
C         -0.79001        1.54370        2.36122
C         -0.52126        2.37550        3.65934
N         -0.25655        3.56997        2.84929
C         -0.14402        2.75811        1.63113
C         -2.28932        1.23653        2.10444
C         -3.26395        2.37541        2.44132
C         -4.49968        2.04774        1.62101
C         -3.90710        1.64300        0.28563
C         -2.61951        0.89868        0.63764
H          0.45967        0.92560       -0.36235
H          1.16829       -0.64160       -0.74579
H          1.98030        0.42682        0.40709
H         -0.74424       -0.92114        0.83039
H          0.77081       -1.49501        1.46937
H         -0.31184       -0.37266        3.24855
H          1.10728        0.53922        2.77898
H         -1.35116        2.47759        4.36525
H          0.35332        2.07486        4.25005
H         -1.02982        4.23313        2.83166
H          0.89803        2.61955        1.32284
H         -0.69615        3.15858        0.77531
H         -2.57604        0.37485        2.72414
H         -3.49442        2.42462        3.50969
H         -2.88232        3.35246        2.12970
H         -5.18130        2.89846        1.53357
H         -5.04687        1.21001        2.06880
H         -3.66654        2.53611       -0.30362
H         -4.59329        1.02869       -0.30492
H         -1.82828        1.17433       -0.06396
H         -2.78916       -0.17916        0.53543

--Link1--
%chk=JID_2240.chk
%mem=8GB
%nprocshared=4
# B3LYP/6-311++G(d,p) empiricaldispersion=gd3bj scf=xqc pop=npa geom=check

CID_112571382_JID_2240_Energie_neutraal

0 1

--Link1--
%chk=JID_2240.chk
%mem=8GB
%nprocshared=4
# B3LYP/6-311++G(d,p) empiricaldispersion=gd3bj scf=xqc pop=npa geom=check

CID_112571382_JID_2240_Energie_kation

1 2

--Link1--
%chk=JID_2240.chk
%mem=8GB
%nprocshared=4
# B3LYP/6-311++G(d,p) empiricaldispersion=gd3bj scf=xqc pop=npa geom=check

CID_112571382_JID_2240_Energie_anion

-1 2
