%chk=JID_10031.chk
%mem=8GB
%nprocshared=4
# opt freq B3LYP/6-31G(d) empiricaldispersion=gd3bj scf=xqc

CID_118221258_JID_10031_neutraal

0 1
C          0.97216        0.09477       -0.01562
C          0.46245        0.08639       -1.42158
N          0.31037       -1.11731       -2.03747
C         -0.14048       -1.16894       -3.30939
C         -0.47289       -0.06422       -4.07515
C         -0.32277        1.18898       -3.46536
C          0.14149        1.23642       -2.15184
N          0.19745        2.56455       -1.79604
C         -0.21412        3.37283       -2.82972
C         -0.54573        2.53653       -3.89406
C         -1.00140        3.12103       -5.09376
C         -1.10575        4.51387       -5.18098
C         -0.76332        5.31882       -4.09366
C         -0.31333        4.77071       -2.89224
O         -0.92565        6.71280       -4.32103
C         -0.59809        7.76782       -3.46091
O         -0.10081        7.62490       -2.34935
N         -0.90686        9.00906       -4.00628
C         -1.60560        9.16564       -5.26983
C         -0.76288       10.19583       -3.18538
H          1.08042       -0.92480        0.36730
H          0.27701        0.63303        0.63588
H          1.94985        0.58433        0.02556
H         -0.23222       -2.17110       -3.71951
H         -0.82885       -0.17089       -5.09187
H          0.50059        2.90570       -0.89543
H         -1.26891        2.49969       -5.94303
H         -1.45630        4.96739       -6.10408
H         -0.04809        5.37482       -2.03443
H         -2.66714        9.32821       -5.06173
H         -1.19962       10.03288       -5.79896
H         -1.49924        8.28861       -5.91212
H         -1.75714       10.52341       -2.86731
H         -0.15196       10.00852       -2.29850
H         -0.29006       10.98476       -3.77753

--Link1--
%chk=JID_10031.chk
%mem=8GB
%nprocshared=4
# B3LYP/6-311++G(d,p) empiricaldispersion=gd3bj scf=xqc pop=npa geom=check

CID_118221258_JID_10031_Energie_neutraal

0 1

--Link1--
%chk=JID_10031.chk
%mem=8GB
%nprocshared=4
# B3LYP/6-311++G(d,p) empiricaldispersion=gd3bj scf=xqc pop=npa geom=check

CID_118221258_JID_10031_Energie_kation

1 2

--Link1--
%chk=JID_10031.chk
%mem=8GB
%nprocshared=4
# B3LYP/6-311++G(d,p) empiricaldispersion=gd3bj scf=xqc pop=npa geom=check

CID_118221258_JID_10031_Energie_anion

-1 2
