%chk=JID_3147.chk
%mem=8GB
%nprocshared=4
# opt freq B3LYP/6-31G(d) empiricaldispersion=gd3bj scf=xqc

CID_103949900_JID_3147_neutraal

0 1
C          0.98255        0.05599       -0.08100
C          0.31692        1.24383        0.64384
C          0.77148        2.53403       -0.08764
C         -1.21009        1.13026        0.46336
C          0.70125        1.36542        2.17227
C         -0.00385        0.37831        3.14064
C          0.33460       -1.10694        3.05189
O          1.73161       -1.35054        3.07316
N          2.16798        1.37696        2.30725
C          2.70317        2.20496        3.39362
C          2.63205        1.52228        4.76089
O          2.69889        0.30742        4.93577
N          2.48820        2.36498        5.82554
H          0.73517        0.06741       -1.14968
H          0.64818       -0.90828        0.30313
H          2.07445        0.08971       -0.00802
H          0.47579        2.51655       -1.14321
H          0.31995        3.42447        0.36429
H          1.85959        2.65631       -0.05769
H         -1.59273        0.17623        0.84034
H         -1.73113        1.93940        0.98702
H         -1.48932        1.18895       -0.59522
H          0.33349        2.35740        2.47454
H          0.21033        0.70441        4.16507
H         -1.09091        0.48911        3.05031
H         -0.11312       -1.63817        3.89913
H         -0.08541       -1.55627        2.15006
H          2.07418       -0.98989        3.92251
H          2.49926        0.40911        2.41263
H          3.76509        2.38702        3.19343
H          2.21075        3.18303        3.42247
H          2.51786        3.37146        5.74047
H          2.47748        1.95657        6.75123

--Link1--
%chk=JID_3147.chk
%mem=8GB
%nprocshared=4
# B3LYP/6-311++G(d,p) empiricaldispersion=gd3bj scf=xqc pop=npa geom=check

CID_103949900_JID_3147_Energie_neutraal

0 1

--Link1--
%chk=JID_3147.chk
%mem=8GB
%nprocshared=4
# B3LYP/6-311++G(d,p) empiricaldispersion=gd3bj scf=xqc pop=npa geom=check

CID_103949900_JID_3147_Energie_kation

1 2

--Link1--
%chk=JID_3147.chk
%mem=8GB
%nprocshared=4
# B3LYP/6-311++G(d,p) empiricaldispersion=gd3bj scf=xqc pop=npa geom=check

CID_103949900_JID_3147_Energie_anion

-1 2
