%chk=JID_3728.chk
%mem=8GB
%nprocshared=4
# opt freq B3LYP/6-31G(d) empiricaldispersion=gd3bj scf=xqc

CID_67748052_JID_3728_neutraal

0 1
C          1.05812        0.06953        0.04228
N          0.87581        1.50700        0.46725
C          1.69562        2.46267       -0.44347
C          0.84891        3.71981       -0.64483
C         -0.53058        3.19983       -0.42142
C         -0.50950        1.97160        0.23272
C         -1.67590        1.32414        0.60260
C         -2.88904        1.94014        0.29142
C         -2.91640        3.18494       -0.36323
C         -1.73017        3.83347       -0.71539
O         -1.62307        5.04715       -1.32602
C         -2.83116        5.76760       -1.55340
C          1.22551        1.70832        1.92720
H          0.70083       -0.05104       -0.98568
H          0.50108       -0.58096        0.72335
H          2.12564       -0.16472        0.09952
H          1.84549        1.94859       -1.40165
H          2.67034        2.65504        0.01656
H          0.99061        4.13244       -1.64782
H          1.09128        4.48048        0.10458
H         -1.67466        0.37180        1.12058
H         -3.82894        1.45950        0.56121
H         -3.88879        3.62252       -0.57738
H         -3.47923        5.23469       -2.25662
H         -3.35155        5.97172       -0.61169
H         -2.56670        6.72901       -2.00397
H          0.58027        1.06962        2.53867
H          2.27240        1.42156        2.06589
H          1.08763        2.76196        2.19103

--Link1--
%chk=JID_3728.chk
%mem=8GB
%nprocshared=4
# B3LYP/6-311++G(d,p) empiricaldispersion=gd3bj scf=xqc pop=npa geom=check

CID_67748052_JID_3728_Energie_neutraal

0 1

--Link1--
%chk=JID_3728.chk
%mem=8GB
%nprocshared=4
# B3LYP/6-311++G(d,p) empiricaldispersion=gd3bj scf=xqc pop=npa geom=check

CID_67748052_JID_3728_Energie_kation

1 2

--Link1--
%chk=JID_3728.chk
%mem=8GB
%nprocshared=4
# B3LYP/6-311++G(d,p) empiricaldispersion=gd3bj scf=xqc pop=npa geom=check

CID_67748052_JID_3728_Energie_anion

-1 2
