%chk=JID_4562.chk
%mem=8GB
%nprocshared=4
# opt freq B3LYP/6-31G(d) empiricaldispersion=gd3bj scf=xqc

CID_53888291_JID_4562_neutraal

0 1
C          0.94699        0.06394       -0.05569
O          0.86105       -0.49316        1.25117
C          1.67525       -1.65107        1.41116
C          0.93657       -2.85180        0.90500
C          1.41398       -3.68182       -0.03458
C          0.62629       -4.81100       -0.52969
C         -0.23385       -4.76007       -1.63070
C         -0.99889       -5.86241       -2.02228
C         -0.86355       -7.01749       -1.28099
N         -0.04257       -7.12418       -0.21501
C          0.67354       -6.02771        0.13814
N         -0.36118       -3.54388       -2.41448
O          0.67887       -3.02310       -2.84083
O         -1.51000       -3.14047       -2.64267
H          0.31225        0.95361       -0.08955
H          0.58867       -0.64421       -0.80820
H          1.97574        0.36353       -0.27781
H          2.65234       -1.51322        0.93370
H          1.84995       -1.77936        2.48458
H         -0.04726       -3.01078        1.34276
H          2.38756       -3.52805       -0.49460
H         -1.67342       -5.82527       -2.87115
H         -1.42473       -7.91544       -1.52652
H          1.30551       -6.16725        1.01285

--Link1--
%chk=JID_4562.chk
%mem=8GB
%nprocshared=4
# B3LYP/6-311++G(d,p) empiricaldispersion=gd3bj scf=xqc pop=npa geom=check

CID_53888291_JID_4562_Energie_neutraal

0 1

--Link1--
%chk=JID_4562.chk
%mem=8GB
%nprocshared=4
# B3LYP/6-311++G(d,p) empiricaldispersion=gd3bj scf=xqc pop=npa geom=check

CID_53888291_JID_4562_Energie_kation

1 2

--Link1--
%chk=JID_4562.chk
%mem=8GB
%nprocshared=4
# B3LYP/6-311++G(d,p) empiricaldispersion=gd3bj scf=xqc pop=npa geom=check

CID_53888291_JID_4562_Energie_anion

-1 2
