%chk=JID_8368.chk
%mem=8GB
%nprocshared=4
# opt freq B3LYP/6-31G(d) empiricaldispersion=gd3bj scf=xqc

CID_113891451_JID_8368_neutraal

0 1
C          1.04993       -0.05254        0.06890
C          0.50851       -0.98957        1.15916
C          1.71493       -1.61005        1.88510
N         -0.37795       -0.41777        2.19946
C         -1.36309       -1.41593        2.67112
C         -1.84994       -1.23166        4.11896
C         -3.00254       -0.25882        4.32421
O         -4.09471       -0.61184        3.48689
C         -0.98539        0.89438        1.91861
C         -0.54284        2.00843        2.86335
N         -1.17132        3.20292        2.70988
C         -0.80973        4.22889        3.52630
C          0.15971        4.10725        4.51483
C          0.79410        2.88073        4.66685
C          0.44527        1.82318        3.83101
C         -1.52850        5.52296        3.29582
O         -2.40260        5.74456        2.47806
O         -1.11019        6.51031        4.11898
H          1.53496        0.83102        0.49786
H          0.25569        0.27023       -0.61196
H          1.79533       -0.56830       -0.54762
H         -0.02167       -1.78927        0.62449
H          2.30623       -0.84121        2.39672
H          1.40970       -2.35009        2.63215
H          2.37538       -2.12103        1.17585
H         -2.20258       -1.49467        1.96923
H         -0.88566       -2.40505        2.66189
H         -2.19563       -2.21695        4.46062
H         -1.01127       -0.95914        4.77029
H         -3.34369       -0.30728        5.36363
H         -2.71498        0.77344        4.12036
H         -4.76838        0.08263        3.59338
H         -0.78917        1.25436        0.90632
H         -2.07971        0.83742        1.95939
H          0.42371        4.94195        5.15495
H          1.55747        2.74639        5.42840
H          0.94100        0.86372        3.94493
H         -1.65835        7.27462        3.83993

--Link1--
%chk=JID_8368.chk
%mem=8GB
%nprocshared=4
# B3LYP/6-311++G(d,p) empiricaldispersion=gd3bj scf=xqc pop=npa geom=check

CID_113891451_JID_8368_Energie_neutraal

0 1

--Link1--
%chk=JID_8368.chk
%mem=8GB
%nprocshared=4
# B3LYP/6-311++G(d,p) empiricaldispersion=gd3bj scf=xqc pop=npa geom=check

CID_113891451_JID_8368_Energie_kation

1 2

--Link1--
%chk=JID_8368.chk
%mem=8GB
%nprocshared=4
# B3LYP/6-311++G(d,p) empiricaldispersion=gd3bj scf=xqc pop=npa geom=check

CID_113891451_JID_8368_Energie_anion

-1 2
