%chk=JID_7235.chk
%mem=8GB
%nprocshared=4
# opt=(cartesian,calcfc) freq B3LYP/6-31G(d) empiricaldispersion=gd3bj scf=xqc

CID_131873537_JID_7235_neutraal

0 1
C          1.03950       -0.05292        0.07510
N          0.33261       -1.32517       -0.08506
C         -1.11254       -1.12249       -0.26540
C         -1.61535       -0.13358       -1.33465
C         -1.42375       -0.52976       -2.79636
C         -2.09046       -1.79654       -3.17709
N         -1.67751       -2.73702       -3.99992
N         -2.65858       -3.70934       -3.99302
C         -3.59259       -3.28835       -3.17440
O         -3.31754       -2.06907       -2.63179
N         -4.74717       -3.85489       -2.81464
C          1.00439       -2.27432       -1.00398
C          2.47160       -2.56381       -0.58964
C          2.56489       -3.31369        0.74114
C          1.78975       -4.62796        0.69607
C          0.35599       -4.43302        0.21237
C          0.31070       -3.65527       -1.10286
H          0.47402        0.63398        0.71608
H          1.21668        0.44108       -0.88625
H          1.99915       -0.18841        0.58227
H         -1.64424       -2.07379       -0.35516
H         -1.47844       -0.73357        0.69612
H         -2.68742        0.02519       -1.15327
H         -1.15441        0.84909       -1.17805
H         -1.83742        0.26724       -3.42678
H         -0.35963       -0.58052       -3.04234
H         -5.46382       -3.25473       -2.42888
H         -5.09021       -4.59947       -3.40931
H          1.03479       -1.83959       -2.00819
H          2.94401       -3.17537       -1.37076
H          3.06955       -1.64781       -0.54657
H          2.17959       -2.68751        1.55434
H          3.61599       -3.52037        0.97259
H          1.78633       -5.09258        1.68844
H          2.30386       -5.32476        0.02212
H         -0.22454       -3.90759        0.97952
H         -0.11714       -5.41200        0.07372
H         -0.72385       -3.57266       -1.44156
H          0.81662       -4.24674       -1.87859

--Link1--
%chk=JID_7235.chk
%mem=8GB
%nprocshared=4
# B3LYP/6-311++G(d,p) empiricaldispersion=gd3bj scf=xqc pop=npa geom=check

CID_131873537_JID_7235_Energie_neutraal

0 1

--Link1--
%chk=JID_7235.chk
%mem=8GB
%nprocshared=4
# B3LYP/6-311++G(d,p) empiricaldispersion=gd3bj scf=xqc pop=npa geom=check

CID_131873537_JID_7235_Energie_kation

1 2

--Link1--
%chk=JID_7235.chk
%mem=8GB
%nprocshared=4
# B3LYP/6-311++G(d,p) empiricaldispersion=gd3bj scf=xqc pop=npa geom=check

CID_131873537_JID_7235_Energie_anion

-1 2
