%chk=JID_9315.chk
%mem=8GB
%nprocshared=4
# opt freq B3LYP/6-31G(d) empiricaldispersion=gd3bj scf=xqc

CID_81045873_JID_9315_neutraal

0 1
C         -2.55700       -0.42200       -0.01100
C         -1.08169       -0.29223        0.08511
C         -0.17188       -1.30422        0.32151
S          1.41980       -0.67176        0.36772
C          0.78863        0.90080        0.07668
N         -0.52297        0.96437       -0.06650
C          1.70904        2.10973       -0.00720
C          1.81417        2.53939       -1.47360
N          1.19590        3.14602        0.90234
C          1.85780        4.44006        0.88152
C          1.25428        5.49426       -0.06523
C         -0.27290        5.74862        0.05686
C         -0.64987        6.14686        1.48406
C         -0.74564        6.73780       -1.06027
C         -0.32430        8.20840       -0.87485
C         -1.29557        9.03250       -0.03038
C         -2.74609        8.81254       -0.44355
N         -3.09079        7.39342       -0.42255
C         -2.25737        6.64157       -1.35723
H         -3.03529        0.07462        0.83882
H         -2.92029        0.04241       -0.93305
H         -2.86644       -1.47185       -0.01395
H         -0.36073       -2.35736        0.47140
H          2.71022        1.82469        0.33980
H          0.86097        2.92807       -1.85038
H          2.58288        3.30608       -1.61053
H          2.09321        1.69144       -2.11036
H          0.18726        3.22570        0.76830
H          1.81674        4.83968        1.90160
H          2.92759        4.32536        0.66708
H          1.79258        6.43293        0.11453
H          1.48100        5.21770       -1.10008
H         -0.77698        4.79726       -0.15500
H         -0.06381        7.00350        1.82982
H         -1.71158        6.38554        1.57555
H         -0.46199        5.32335        2.18088
H         -0.25167        6.39295       -1.98098
H          0.68652        8.28971       -0.46344
H         -0.28062        8.67039       -1.87078
H         -1.17670        8.79134        1.03056
H         -1.04664       10.09583       -0.12873
H         -3.40195        9.34767        0.25188
H         -2.92715        9.23368       -1.44009
H         -4.07033        7.28137       -0.68260
H         -2.44679        7.00369       -2.37657
H         -2.57236        5.59183       -1.34760

--Link1--
%chk=JID_9315.chk
%mem=8GB
%nprocshared=4
# B3LYP/6-311++G(d,p) empiricaldispersion=gd3bj scf=xqc pop=npa geom=check

CID_81045873_JID_9315_Energie_neutraal

0 1

--Link1--
%chk=JID_9315.chk
%mem=8GB
%nprocshared=4
# B3LYP/6-311++G(d,p) empiricaldispersion=gd3bj scf=xqc pop=npa geom=check

CID_81045873_JID_9315_Energie_kation

1 2

--Link1--
%chk=JID_9315.chk
%mem=8GB
%nprocshared=4
# B3LYP/6-311++G(d,p) empiricaldispersion=gd3bj scf=xqc pop=npa geom=check

CID_81045873_JID_9315_Energie_anion

-1 2
