%chk=JID_7563.chk
%mem=8GB
%nprocshared=4
# opt freq B3LYP/6-31G(d) empiricaldispersion=gd3bj scf=xqc

CID_79471414_JID_7563_neutraal

0 1
C          0.90384        0.02348       -0.01425
C          0.01151       -0.49129        1.10304
C          0.13364        0.29494        2.41590
N         -0.11157        1.72030        2.36686
C         -1.26902        2.31386        1.89697
N         -1.15643        3.61759        2.00037
N          0.02407        3.88988        2.61961
C          0.64239        2.75618        2.89159
C          1.96006        2.79197        3.69487
C          2.33539        1.62646        4.60638
C          3.09336        1.83839        3.33950
C          2.30341        4.16710        4.18348
O          2.01599        4.54130        5.31317
O          3.02084        4.87149        3.26406
C          3.37860        6.20267        3.65896
C          2.25592        7.16944        3.33153
C         -2.46367        1.61402        1.37278
H          0.62143        1.03662       -0.31586
H          0.81920       -0.62357       -0.89310
H          1.95313        0.03630        0.29683
H         -1.02336       -0.51725        0.75254
H          0.28119       -1.53487        1.30864
H         -0.56472       -0.11401        3.15587
H          1.13438        0.11598        2.79882
H          2.83637        1.86471        5.54200
H          1.65541        0.79487        4.71566
H          2.96975        1.16112        2.50646
H          4.10964        2.21586        3.41612
H          3.64666        6.24682        4.72111
H          4.27534        6.47533        3.09295
H          1.34384        6.91426        3.88027
H          2.54079        8.19449        3.58552
H          2.00984        7.12513        2.26562
H         -3.33706        2.27288        1.41931
H         -2.31666        1.33441        0.32568
H         -2.69713        0.72032        1.95835

--Link1--
%chk=JID_7563.chk
%mem=8GB
%nprocshared=4
# B3LYP/6-311++G(d,p) empiricaldispersion=gd3bj scf=xqc pop=npa geom=check

CID_79471414_JID_7563_Energie_neutraal

0 1

--Link1--
%chk=JID_7563.chk
%mem=8GB
%nprocshared=4
# B3LYP/6-311++G(d,p) empiricaldispersion=gd3bj scf=xqc pop=npa geom=check

CID_79471414_JID_7563_Energie_kation

1 2

--Link1--
%chk=JID_7563.chk
%mem=8GB
%nprocshared=4
# B3LYP/6-311++G(d,p) empiricaldispersion=gd3bj scf=xqc pop=npa geom=check

CID_79471414_JID_7563_Energie_anion

-1 2
