%chk=JID_4189.chk
%mem=8GB
%nprocshared=4
# opt freq B3LYP/6-31G(d) empiricaldispersion=gd3bj scf=xqc

CID_150886190_JID_4189_neutraal

0 1
C          0.98647        0.06114       -0.07796
C          0.87441       -1.25339       -0.83623
N          0.20799       -2.24364        0.00542
N         -0.02159       -3.46436       -0.73298
C          0.77448       -4.59059       -0.12903
C          2.30203       -4.34993       -0.24837
C          2.79786       -4.39505       -1.69544
C          2.44182       -5.71460       -2.37414
C          0.94678       -6.03414       -2.25315
C          0.50536       -5.97405       -0.78269
C          0.64332       -7.40741       -2.85085
N         -1.44118       -3.73970       -0.61520
C         -2.21586       -2.88267       -1.52881
C         -1.99840       -3.22516       -2.99781
H         -0.00157        0.44329        0.20041
H          1.47562        0.81568       -0.70243
H          1.57992       -0.05633        0.83513
H          0.30711       -1.07929       -1.75787
H          1.87913       -1.58121       -1.11953
H          0.70043       -2.38358        0.88506
H          0.52275       -4.67461        0.93826
H          2.82459       -5.12759        0.32537
H          2.59897       -3.40329        0.21498
H          3.88539       -4.25974       -1.71234
H          2.36863       -3.56715       -2.27038
H          3.03218       -6.52029       -1.91872
H          2.73211       -5.67014       -3.43060
H          0.38202       -5.29001       -2.82796
H         -0.54449       -6.26956       -0.68887
H          1.05890       -6.73498       -0.21358
H         -0.42882       -7.62436       -2.79874
H          0.94213       -7.44702       -3.90362
H          1.17592       -8.20185       -2.31713
H         -1.65889       -4.69908       -0.87390
H         -3.27605       -3.03831       -1.29619
H         -2.02833       -1.81767       -1.35243
H         -2.22112       -4.27902       -3.19567
H         -2.66093       -2.61969       -3.62480
H         -0.96868       -3.02571       -3.31100

--Link1--
%chk=JID_4189.chk
%mem=8GB
%nprocshared=4
# B3LYP/6-311++G(d,p) empiricaldispersion=gd3bj scf=xqc pop=npa geom=check

CID_150886190_JID_4189_Energie_neutraal

0 1

--Link1--
%chk=JID_4189.chk
%mem=8GB
%nprocshared=4
# B3LYP/6-311++G(d,p) empiricaldispersion=gd3bj scf=xqc pop=npa geom=check

CID_150886190_JID_4189_Energie_kation

1 2

--Link1--
%chk=JID_4189.chk
%mem=8GB
%nprocshared=4
# B3LYP/6-311++G(d,p) empiricaldispersion=gd3bj scf=xqc pop=npa geom=check

CID_150886190_JID_4189_Energie_anion

-1 2
