%chk=JID_5969.chk
%mem=8GB
%nprocshared=4
# opt freq B3LYP/6-31G(d) empiricaldispersion=gd3bj scf=xqc

CID_63125007_JID_5969_neutraal

0 1
C         -2.53900       -0.00300       -0.12500
C         -1.06818        0.05546        0.31041
C         -0.34018        1.15398       -0.48847
C          1.18057        1.12784       -0.29174
N          1.80001       -0.18829       -0.43227
C          1.11039       -1.25184        0.28119
C         -0.39463       -1.30013        0.03008
C          2.31836       -0.51931       -1.76908
C          1.28849       -0.50567       -2.90041
O          0.90013        0.54309       -3.42016
N          0.78081       -1.68194       -3.37566
C          1.22765       -3.01911       -3.07941
C         -1.05247        0.40170        1.79633
O         -0.88954        1.50709        2.28752
O         -1.31898       -0.64639        2.60057
H         -3.04758        0.94804        0.07176
H         -2.63180       -0.21810       -1.19537
H         -3.08504       -0.78151        0.42029
H         -0.57826        1.04262       -1.55065
H         -0.71220        2.14779       -0.20703
H          1.40504        1.48893        0.72008
H          1.65271        1.85796       -0.96069
H          1.28448       -1.10353        1.35483
H          1.55893       -2.22737        0.06262
H         -0.83101       -2.09353        0.64936
H         -0.58574       -1.59673       -1.00692
H          3.08798        0.21494       -2.04136
H          2.85355       -1.47377       -1.74242
H          0.15200       -1.54698       -4.15899
H          0.51644       -3.72498       -3.51492
H          2.21590       -3.16703       -3.52146
H          1.28003       -3.17370       -2.00143
H         -1.31717       -0.25350        3.49913

--Link1--
%chk=JID_5969.chk
%mem=8GB
%nprocshared=4
# B3LYP/6-311++G(d,p) empiricaldispersion=gd3bj scf=xqc pop=npa geom=check

CID_63125007_JID_5969_Energie_neutraal

0 1

--Link1--
%chk=JID_5969.chk
%mem=8GB
%nprocshared=4
# B3LYP/6-311++G(d,p) empiricaldispersion=gd3bj scf=xqc pop=npa geom=check

CID_63125007_JID_5969_Energie_kation

1 2

--Link1--
%chk=JID_5969.chk
%mem=8GB
%nprocshared=4
# B3LYP/6-311++G(d,p) empiricaldispersion=gd3bj scf=xqc pop=npa geom=check

CID_63125007_JID_5969_Energie_anion

-1 2
