%chk=JID_10750.chk
%mem=8GB
%nprocshared=4
# opt freq B3LYP/6-31G(d) empiricaldispersion=gd3bj scf=xqc

CID_127749659_JID_10750_neutraal

0 1
C          1.07693        0.03931        0.05036
C          0.24395        1.31779        0.02325
C          0.53197        2.27660       -1.14340
C         -0.11224        1.86019       -2.48439
C         -1.57348        1.48395       -2.21662
C         -1.70997        0.48425       -1.08290
O         -1.14959        1.01276        0.11422
C          0.75341        0.80314       -3.20600
O          1.86756        0.51489       -2.75317
N          0.29489        0.19222       -4.36918
C          1.08972       -0.89541       -4.95061
C          0.57040       -2.27396       -4.56551
C         -0.67804       -2.66457       -5.34418
S         -2.16274       -1.74340       -4.84530
C         -1.83327       -0.13610       -5.56941
C         -2.82137        0.38574       -6.41602
C         -2.72025        1.68566       -6.91449
C         -1.63765        2.48530       -6.55999
C         -0.65375        1.98712       -5.70603
C         -0.74513        0.68203       -5.20060
H          0.84072       -0.64417       -0.76815
H          0.87003       -0.51643        0.97212
H          2.14704        0.26620        0.02266
H          0.48760        1.85990        0.94561
H          0.09627        3.24965       -0.87495
H          1.61032        2.44679       -1.24294
H         -0.09043        2.74818       -3.12747
H         -2.09052        1.10102       -3.09368
H         -2.10363        2.40206       -1.92834
H         -1.25916       -0.48119       -1.33221
H         -2.77135        0.29815       -0.88793
H          2.12825       -0.81102       -4.61044
H          1.12917       -0.77907       -6.04183
H          0.39821       -2.34127       -3.48412
H          1.35196       -3.00626       -4.80436
H         -0.52304       -2.55879       -6.42343
H         -0.88861       -3.72296       -5.15600
H         -3.69082       -0.21272       -6.68137
H         -3.49407        2.07549       -7.57158
H         -1.55720        3.49660       -6.95145
H          0.20039        2.61547       -5.46535

--Link1--
%chk=JID_10750.chk
%mem=8GB
%nprocshared=4
# B3LYP/6-311++G(d,p) empiricaldispersion=gd3bj scf=xqc pop=npa geom=check

CID_127749659_JID_10750_Energie_neutraal

0 1

--Link1--
%chk=JID_10750.chk
%mem=8GB
%nprocshared=4
# B3LYP/6-311++G(d,p) empiricaldispersion=gd3bj scf=xqc pop=npa geom=check

CID_127749659_JID_10750_Energie_kation

1 2

--Link1--
%chk=JID_10750.chk
%mem=8GB
%nprocshared=4
# B3LYP/6-311++G(d,p) empiricaldispersion=gd3bj scf=xqc pop=npa geom=check

CID_127749659_JID_10750_Energie_anion

-1 2
