%chk=JID_7122.chk
%mem=8GB
%nprocshared=4
# opt freq B3LYP/6-31G(d) empiricaldispersion=gd3bj scf=xqc

CID_105357755_JID_7122_neutraal

0 1
C          1.08260       -0.01044       -0.05539
N          0.35959        0.95283       -0.91961
C         -1.01846        0.49361       -1.17448
S          0.54189        2.53607       -0.35349
O         -0.25968        2.66591        0.83577
O          1.95612        2.83148       -0.33524
N         -0.07739        3.44747       -1.60403
C         -1.50007        3.80241       -1.64782
C         -1.97264        4.67908       -0.51594
C         -2.88295        4.16383        0.42237
C         -3.22653        4.94210        1.51127
C         -2.69893        6.21717        1.68148
C         -3.18045        6.77007        2.98066
N         -4.29739        5.88180        3.39940
C         -4.07426        4.59672        2.68798
C         -1.81820        6.75764        0.76171
C         -1.45850        5.98281       -0.34563
H          1.06273       -1.00665       -0.51013
H          0.62517       -0.07179        0.93702
H          2.13684        0.26534        0.04197
H         -1.70337        0.80286       -0.37986
H         -1.36248        0.87558       -2.13872
H         -1.06255       -0.59883       -1.23984
H          0.53344        4.25410       -1.72512
H         -1.67296        4.34716       -2.58508
H         -2.11721        2.90410       -1.72401
H         -3.26386        3.15058        0.33645
H         -3.53374        7.80033        2.87940
H         -2.38085        6.72873        3.72802
H         -5.14647        6.28383        3.00264
H         -3.54488        3.89761        3.34430
H         -5.03035        4.15863        2.38531
H         -1.39222        7.74493        0.90755
H         -0.74717        6.38780       -1.06193

--Link1--
%chk=JID_7122.chk
%mem=8GB
%nprocshared=4
# B3LYP/6-311++G(d,p) empiricaldispersion=gd3bj scf=xqc pop=npa geom=check

CID_105357755_JID_7122_Energie_neutraal

0 1

--Link1--
%chk=JID_7122.chk
%mem=8GB
%nprocshared=4
# B3LYP/6-311++G(d,p) empiricaldispersion=gd3bj scf=xqc pop=npa geom=check

CID_105357755_JID_7122_Energie_kation

1 2

--Link1--
%chk=JID_7122.chk
%mem=8GB
%nprocshared=4
# B3LYP/6-311++G(d,p) empiricaldispersion=gd3bj scf=xqc pop=npa geom=check

CID_105357755_JID_7122_Energie_anion

-1 2
