%chk=JID_9201.chk
%mem=8GB
%nprocshared=4
# opt freq B3LYP/6-31G(d) empiricaldispersion=gd3bj scf=xqc

CID_22766794_JID_9201_neutraal

0 1
C          0.98464        0.04913        0.08573
C          0.95297       -1.26315       -0.68950
N          1.34481       -2.43648        0.10975
C          0.51756       -2.74812        1.29055
C          0.22702       -4.26143        1.40526
C          1.34204       -5.07897        2.09025
S          1.02093       -5.58530        3.82687
C          1.18124       -3.98570        4.68393
C          2.52702       -3.32213        4.52625
O          2.70667       -2.11346        4.47168
O          3.58296       -4.15594        4.52147
O         -1.04422       -4.45166        2.04914
C          2.72423       -2.62556        0.22383
C          3.50575       -1.99932        1.19969
C          4.87632       -2.25166        1.29225
C          5.48462       -3.14359        0.41101
C          4.73113       -3.77046       -0.58560
C          3.35672       -3.50301       -0.66913
C          5.36557       -4.77010       -1.50615
H          0.36286        0.00803        0.98495
H          0.60837        0.86167       -0.54442
H          2.00168        0.31315        0.38871
H         -0.06659       -1.42776       -1.05930
H          1.58501       -1.17814       -1.58293
H          0.94631       -2.34687        2.21372
H         -0.45159       -2.24259        1.18310
H          0.10427       -4.65452        0.38769
H          1.42280       -6.02969        1.54930
H          2.32757       -4.61841        2.01285
H          0.40259       -3.31077        4.31859
H          1.01172       -4.14736        5.75270
H          4.36122       -3.57358        4.40275
H         -1.01039       -5.32060        2.49255
H          3.05480       -1.30058        1.89959
H          5.46678       -1.74911        2.05347
H          6.54988       -3.34270        0.50215
H          2.75526       -3.99996       -1.42783
H          5.29866       -5.77226       -1.07096
H          4.86865       -4.77436       -2.48184
H          6.41992       -4.53009       -1.67863

--Link1--
%chk=JID_9201.chk
%mem=8GB
%nprocshared=4
# B3LYP/6-311++G(d,p) empiricaldispersion=gd3bj scf=xqc pop=npa geom=check

CID_22766794_JID_9201_Energie_neutraal

0 1

--Link1--
%chk=JID_9201.chk
%mem=8GB
%nprocshared=4
# B3LYP/6-311++G(d,p) empiricaldispersion=gd3bj scf=xqc pop=npa geom=check

CID_22766794_JID_9201_Energie_kation

1 2

--Link1--
%chk=JID_9201.chk
%mem=8GB
%nprocshared=4
# B3LYP/6-311++G(d,p) empiricaldispersion=gd3bj scf=xqc pop=npa geom=check

CID_22766794_JID_9201_Energie_anion

-1 2
