%chk=JID_9434.chk
%mem=8GB
%nprocshared=4
# opt freq B3LYP/6-31G(d) empiricaldispersion=gd3bj scf=xqc

CID_120991120_JID_9434_neutraal

0 1
C          1.02523        0.03050        0.09183
O          0.53602        0.66807       -1.07568
C          0.66666        2.08974       -1.02296
C         -0.57173        2.75258       -1.65083
C         -1.61925        2.99734       -0.54731
O         -1.67687        4.11024       -0.00157
N         -2.47158        2.04413       -0.09755
C         -2.73463        0.75039       -0.46132
N         -3.60616        0.08068        0.29913
N         -3.64783       -1.14959       -0.22894
C         -2.84349       -1.30146       -1.32118
C         -2.26936       -0.06086       -1.51436
C         -2.68554       -2.60818       -2.03479
C         -1.33090       -3.25134       -1.70948
C         -1.14797       -4.53588       -2.50648
O         -1.28680       -4.29033       -3.90439
C         -2.57783       -3.78815       -4.24494
C         -2.84009       -2.45725       -3.55264
N         -0.20005        4.07071       -2.24464
H          0.93217       -1.05084       -0.03969
H          0.43365        0.32638        0.96363
H          2.07990        0.27559        0.24976
H          0.82313        2.44282        0.00471
H          1.56744        2.33399       -1.59846
H         -1.00032        2.15834       -2.45713
H         -3.04541        2.34029        0.68130
H         -4.23947       -1.84276        0.21777
H         -1.57016        0.16741       -2.30292
H         -3.47464       -3.28999       -1.68614
H         -0.52162       -2.55550       -1.96814
H         -1.24648       -3.45977       -0.63637
H         -0.14475       -4.93963       -2.33638
H         -1.86867       -5.30229       -2.19793
H         -3.33927       -4.53184       -3.98233
H         -2.60730       -3.65450       -5.33094
H         -3.84121       -2.09012       -3.80647
H         -2.11853       -1.71986       -3.92794
H         -1.04640        4.48088       -2.64426
H          0.01711        4.69838       -1.46261

--Link1--
%chk=JID_9434.chk
%mem=8GB
%nprocshared=4
# B3LYP/6-311++G(d,p) empiricaldispersion=gd3bj scf=xqc pop=npa geom=check

CID_120991120_JID_9434_Energie_neutraal

0 1

--Link1--
%chk=JID_9434.chk
%mem=8GB
%nprocshared=4
# B3LYP/6-311++G(d,p) empiricaldispersion=gd3bj scf=xqc pop=npa geom=check

CID_120991120_JID_9434_Energie_kation

1 2

--Link1--
%chk=JID_9434.chk
%mem=8GB
%nprocshared=4
# B3LYP/6-311++G(d,p) empiricaldispersion=gd3bj scf=xqc pop=npa geom=check

CID_120991120_JID_9434_Energie_anion

-1 2
