%chk=JID_7407.chk
%mem=8GB
%nprocshared=4
# opt freq B3LYP/6-31G(d) empiricaldispersion=gd3bj scf=xqc

CID_82129362_JID_7407_neutraal

0 1
C          1.04825        0.05853       -0.06516
C          0.45450       -0.06045        1.34672
C          0.85836       -1.42334        1.95354
C          0.61401       -1.48052        3.44392
C          0.67253       -0.29952        4.19976
C          0.48848       -0.33668        5.58446
C          0.23516       -1.55001        6.22903
C          0.18054       -2.74228        5.50006
C          0.40663       -2.70332        4.10809
O          0.36812       -3.82528        3.31267
C          1.27302       -4.84587        3.73181
O         -0.09493       -3.96671        6.05015
C         -0.40919       -4.01457        7.43562
C          0.93885        1.00876        3.54428
O          1.12136        2.03191        4.19261
N          0.97988        1.02477        2.17197
C         -1.07785        0.05977        1.24894
H          0.77826        1.01426       -0.52932
H          0.69052       -0.74641       -0.71663
H          2.14312        0.01095       -0.03882
H          0.31597       -2.22278        1.43453
H          1.93114       -1.60182        1.79970
H          0.53464        0.58265        6.16567
H          0.08384       -1.52505        7.30319
H          2.14734       -4.45067        4.26196
H          0.74968       -5.58472        4.34547
H          1.63245       -5.35811        2.83387
H          0.44605       -3.70252        8.04385
H         -1.29779       -3.41612        7.66191
H         -0.63530       -5.05443        7.69061
H          1.05539        1.95699        1.78172
H         -1.36654        1.02326        0.81254
H         -1.49776       -0.73266        0.61948
H         -1.56023       -0.00225        2.23034

--Link1--
%chk=JID_7407.chk
%mem=8GB
%nprocshared=4
# B3LYP/6-311++G(d,p) empiricaldispersion=gd3bj scf=xqc pop=npa geom=check

CID_82129362_JID_7407_Energie_neutraal

0 1

--Link1--
%chk=JID_7407.chk
%mem=8GB
%nprocshared=4
# B3LYP/6-311++G(d,p) empiricaldispersion=gd3bj scf=xqc pop=npa geom=check

CID_82129362_JID_7407_Energie_kation

1 2

--Link1--
%chk=JID_7407.chk
%mem=8GB
%nprocshared=4
# B3LYP/6-311++G(d,p) empiricaldispersion=gd3bj scf=xqc pop=npa geom=check

CID_82129362_JID_7407_Energie_anion

-1 2
