%chk=JID_3567.chk
%mem=8GB
%nprocshared=4
# opt freq B3LYP/6-31G(d) empiricaldispersion=gd3bj scf=xqc

CID_133680481_JID_3567_neutraal

0 1
C          1.00288        0.09996       -0.00074
C          0.51626        1.27769       -0.84236
C          0.50883        1.02102       -2.36982
N         -0.22486       -0.18153       -2.76166
C         -0.58683       -0.56765       -4.03883
C         -1.08468       -1.79206       -4.30577
N         -1.45609       -2.16379       -5.57392
C         -1.36240       -1.34407       -6.66935
O         -1.70316       -1.68978       -7.79378
C         -0.81475        0.00708       -6.40864
C         -0.45673        0.35147       -5.16226
O         -0.70067        1.82181       -0.31197
C         -1.88915        1.09810       -0.59306
H          0.30481       -0.74164       -0.01757
H          1.09415        0.40125        1.04870
H          1.97952       -0.25273       -0.34630
H          1.24798        2.08099       -0.68625
H          0.06406        1.89886       -2.85143
H          1.54307        0.92192       -2.71941
H         -0.15293       -0.96007       -2.11286
H         -1.22697       -2.54188       -3.53548
H         -1.83505       -3.08632       -5.74558
H         -0.72723        0.67441       -7.25487
H         -0.06006        1.34418       -4.99141
H         -2.17792        1.22393       -1.63974
H         -1.79102        0.03927       -0.34131
H         -2.69095        1.51824        0.02105

--Link1--
%chk=JID_3567.chk
%mem=8GB
%nprocshared=4
# B3LYP/6-311++G(d,p) empiricaldispersion=gd3bj scf=xqc pop=npa geom=check

CID_133680481_JID_3567_Energie_neutraal

0 1

--Link1--
%chk=JID_3567.chk
%mem=8GB
%nprocshared=4
# B3LYP/6-311++G(d,p) empiricaldispersion=gd3bj scf=xqc pop=npa geom=check

CID_133680481_JID_3567_Energie_kation

1 2

--Link1--
%chk=JID_3567.chk
%mem=8GB
%nprocshared=4
# B3LYP/6-311++G(d,p) empiricaldispersion=gd3bj scf=xqc pop=npa geom=check

CID_133680481_JID_3567_Energie_anion

-1 2
