%chk=JID_4486.chk
%mem=8GB
%nprocshared=4
# opt freq B3LYP/6-31G(d) empiricaldispersion=gd3bj scf=xqc

CID_43124154_JID_4486_neutraal

0 1
C         -2.13100       -0.04600       -0.06100
N         -0.68990       -0.01846       -0.01083
C          0.15524       -1.08826       -0.03845
C          1.44255       -0.58208        0.02619
C          1.23565        0.81975        0.09671
N         -0.05421        1.16168        0.07022
C          2.72140       -1.35384        0.02509
C          3.39756       -1.06805       -1.29431
C          3.18361       -1.92819       -2.37287
N          3.73372       -1.77811       -3.60034
C          4.53043       -0.70516       -3.77904
C          4.80568        0.21909       -2.78666
C          4.23248        0.03302       -1.53029
N          3.51275       -1.01681        1.20281
H         -2.51658        0.40949        0.85450
H         -2.45656        0.51817       -0.93853
H         -2.47294       -1.08121       -0.13544
H         -0.21361       -2.10251       -0.09920
H          1.97580        1.60579        0.16453
H          2.50200       -2.42708        0.09079
H          2.53886       -2.79914       -2.27873
H          4.95363       -0.60223       -4.77403
H          5.44884        1.06860       -2.98774
H          4.43780        0.75968       -0.74985
H          4.42178       -1.46778        1.12425
H          3.68258       -0.01674        1.23798

--Link1--
%chk=JID_4486.chk
%mem=8GB
%nprocshared=4
# B3LYP/6-311++G(d,p) empiricaldispersion=gd3bj scf=xqc pop=npa geom=check

CID_43124154_JID_4486_Energie_neutraal

0 1

--Link1--
%chk=JID_4486.chk
%mem=8GB
%nprocshared=4
# B3LYP/6-311++G(d,p) empiricaldispersion=gd3bj scf=xqc pop=npa geom=check

CID_43124154_JID_4486_Energie_kation

1 2

--Link1--
%chk=JID_4486.chk
%mem=8GB
%nprocshared=4
# B3LYP/6-311++G(d,p) empiricaldispersion=gd3bj scf=xqc pop=npa geom=check

CID_43124154_JID_4486_Energie_anion

-1 2
