%chk=JID_9008.chk
%mem=8GB
%nprocshared=4
# opt freq B3LYP/6-31G(d) empiricaldispersion=gd3bj scf=xqc

CID_61193666_JID_9008_neutraal

0 1
C         -2.77800        0.45500        0.00500
C         -1.41294       -0.10510       -0.18903
C         -1.01971       -1.43975       -0.17000
S          0.67686       -1.52269       -0.50001
C          0.75278        0.18360       -0.58779
N         -0.38904        0.80675       -0.41407
C          2.04737        0.87564       -0.82967
C         -1.78010       -2.72989        0.07231
C         -1.49325       -3.25383        1.48760
N         -3.22333       -2.53447       -0.10306
C         -3.98430       -3.75955       -0.40154
C         -5.08804       -3.92366        0.64871
C         -4.42756       -3.76285       -1.89971
C         -4.98215       -2.43621       -2.45744
C         -6.44152       -2.19755       -2.09875
C         -7.30446       -3.41009       -2.44088
N         -6.78301       -4.63667       -1.82447
C         -5.40157       -4.90789       -2.25287
C         -7.65401       -5.77089       -2.12913
H         -2.74625        1.54972        0.02541
H         -3.44008        0.16264       -0.81393
H         -3.20490        0.12478        0.95648
H          1.89313        1.74925       -1.47121
H          2.46981        1.22077        0.11943
H          2.78025        0.22662       -1.31897
H         -1.42547       -3.46335       -0.66438
H         -1.81082       -2.53582        2.25344
H         -2.01015       -4.20032        1.67791
H         -0.42329       -3.43665        1.63609
H         -3.59773       -2.08711        0.73162
H         -3.33950       -4.64025       -0.27230
H         -5.82782       -3.12163        0.61313
H         -5.60097       -4.88388        0.54249
H         -4.65819       -3.92124        1.65807
H         -3.50370       -3.95363       -2.46746
H         -4.90798       -2.47513       -3.55339
H         -4.37454       -1.57812       -2.15704
H         -6.81111       -1.32340       -2.64799
H         -6.53531       -1.95100       -1.03692
H         -7.36474       -3.51897       -3.53183
H         -8.32131       -3.21525       -2.07854
H         -5.03979       -5.83343       -1.78737
H         -5.37489       -5.07304       -3.33903
H         -7.71264       -5.97131       -3.20484
H         -7.29628       -6.67636       -1.62683
H         -8.66788       -5.58672       -1.75628

--Link1--
%chk=JID_9008.chk
%mem=8GB
%nprocshared=4
# B3LYP/6-311++G(d,p) empiricaldispersion=gd3bj scf=xqc pop=npa geom=check

CID_61193666_JID_9008_Energie_neutraal

0 1

--Link1--
%chk=JID_9008.chk
%mem=8GB
%nprocshared=4
# B3LYP/6-311++G(d,p) empiricaldispersion=gd3bj scf=xqc pop=npa geom=check

CID_61193666_JID_9008_Energie_kation

1 2

--Link1--
%chk=JID_9008.chk
%mem=8GB
%nprocshared=4
# B3LYP/6-311++G(d,p) empiricaldispersion=gd3bj scf=xqc pop=npa geom=check

CID_61193666_JID_9008_Energie_anion

-1 2
