%chk=JID_9110.chk
%mem=8GB
%nprocshared=4
# opt freq B3LYP/6-31G(d) empiricaldispersion=gd3bj scf=xqc

CID_111430233_JID_9110_neutraal

0 1
C          1.24600        0.75200        0.43800
C          1.23043       -0.67723       -0.10287
C         -0.11440       -0.85939       -0.81082
C         -1.01024        0.25834       -0.26294
C         -0.02294        1.41387       -0.08927
C         -2.19050        0.55671       -1.19178
C         -2.81090        1.91889       -0.94443
O         -2.55897        2.87520       -1.67991
N         -3.65467        2.08732        0.12234
N         -3.89495        1.08950        1.07659
C         -4.72557        1.30491        2.16108
O         -4.55219        0.70596        3.21940
C         -5.83342        2.28625        2.04695
C         -6.11959        3.09745        3.15119
C         -7.15046        4.03473        3.07913
C         -7.90423        4.15288        1.91107
C         -7.63644        3.32938        0.81663
C         -6.60542        2.39073        0.88382
O         -1.52473       -0.14512        1.01378
H          1.23969        0.73455        1.53419
H          2.14288        1.29701        0.12703
H          1.33646       -1.39249        0.72062
H          2.06084       -0.85331       -0.79472
H         -0.52159       -1.85814       -0.62206
H          0.03808       -0.74811       -1.89127
H          0.19110        1.89305       -1.05234
H         -0.37705        2.17589        0.61242
H         -1.86670        0.54955       -2.24043
H         -2.96957       -0.20963       -1.10082
H         -3.97815        3.03345        0.30462
H         -3.09287        0.48468        1.29556
H         -5.53849        3.00060        4.06605
H         -7.36874        4.66844        3.93518
H         -8.70969        4.88156        1.85770
H         -8.23676        3.41422       -0.08606
H         -6.41930        1.73880        0.03393
H         -0.78508       -0.45681        1.56762

--Link1--
%chk=JID_9110.chk
%mem=8GB
%nprocshared=4
# B3LYP/6-311++G(d,p) empiricaldispersion=gd3bj scf=xqc pop=npa geom=check

CID_111430233_JID_9110_Energie_neutraal

0 1

--Link1--
%chk=JID_9110.chk
%mem=8GB
%nprocshared=4
# B3LYP/6-311++G(d,p) empiricaldispersion=gd3bj scf=xqc pop=npa geom=check

CID_111430233_JID_9110_Energie_kation

1 2

--Link1--
%chk=JID_9110.chk
%mem=8GB
%nprocshared=4
# B3LYP/6-311++G(d,p) empiricaldispersion=gd3bj scf=xqc pop=npa geom=check

CID_111430233_JID_9110_Energie_anion

-1 2
