%chk=JID_2854.chk
%mem=8GB
%nprocshared=4
# opt freq B3LYP/6-31G(d) empiricaldispersion=gd3bj scf=xqc

CID_66045781_JID_2854_neutraal

0 1
C          0.94036       -0.05193       -0.06120
C          0.70302        1.44750        0.05669
C          1.36054        2.24618       -1.04650
C          0.61558        2.97178       -1.89922
C          2.87358        2.20951       -1.18178
C          3.64651        2.91340       -0.04289
C          4.05850        2.01269        1.14132
C          5.34468        1.13301        1.08414
C          6.62644        1.98232        1.17047
C          5.32132        0.20830        2.32437
C          5.41165        0.24289       -0.16312
O          4.76973        3.61796       -0.56722
H          0.61205       -0.42869       -1.03563
H          0.37603       -0.58204        0.71302
H          1.99557       -0.30887        0.06733
H         -0.38143        1.61771        0.05123
H          1.05071        1.80726        1.03063
H          1.06555        3.55479       -2.69784
H         -0.46729        3.01004       -1.82254
H          3.19086        1.17051       -1.29594
H          3.15300        2.68532       -2.13239
H          2.99283        3.69385        0.36735
H          4.17829        2.68073        2.00728
H          3.20871        1.37170        1.39832
H          6.58218        2.68376        2.01086
H          7.50747        1.34675        1.32021
H          6.80950        2.55653        0.25918
H          4.44256       -0.44684        2.31349
H          6.20939       -0.43296        2.36181
H          5.29269        0.79132        3.25196
H          4.52631       -0.39674       -0.24171
H          5.49579        0.83163       -1.08114
H          6.28601       -0.41778       -0.12747
H          5.22411        3.03734       -1.19982

--Link1--
%chk=JID_2854.chk
%mem=8GB
%nprocshared=4
# B3LYP/6-311++G(d,p) empiricaldispersion=gd3bj scf=xqc pop=npa geom=check

CID_66045781_JID_2854_Energie_neutraal

0 1

--Link1--
%chk=JID_2854.chk
%mem=8GB
%nprocshared=4
# B3LYP/6-311++G(d,p) empiricaldispersion=gd3bj scf=xqc pop=npa geom=check

CID_66045781_JID_2854_Energie_kation

1 2

--Link1--
%chk=JID_2854.chk
%mem=8GB
%nprocshared=4
# B3LYP/6-311++G(d,p) empiricaldispersion=gd3bj scf=xqc pop=npa geom=check

CID_66045781_JID_2854_Energie_anion

-1 2
