%chk=JID_5210.chk
%mem=8GB
%nprocshared=4
# opt freq B3LYP/6-31G(d) empiricaldispersion=gd3bj scf=xqc

CID_90219882_JID_5210_neutraal

0 1
C         -1.50500        0.02200       -0.20100
C         -0.75425        1.26999        0.25039
C          0.64738        1.33009       -0.36539
N          1.39975        0.11212       -0.03676
C          0.73376       -1.09322       -0.53728
C         -0.66913       -1.22604        0.05908
C          2.85153        0.16337       -0.38529
C          3.25514        0.00559       -1.89619
N          2.56639        0.84106       -2.88668
C          3.60346        1.28723        0.33941
N          4.36305        2.15064       -0.37290
N          5.06124        3.14543        0.25744
C          4.98505        3.26174        1.59571
C          4.23003        2.40631        2.36954
C          3.52755        1.39517        1.72752
H         -2.46361       -0.05104        0.32415
H         -1.72830        0.09645       -1.27235
H         -1.32111        2.16399       -0.03342
H         -0.67583        1.27530        1.34511
H          0.54360        1.47337       -1.44411
H          1.14152        2.22227        0.03372
H          1.30561       -1.98507       -0.25411
H          0.66142       -1.08599       -1.63116
H         -0.59324       -1.39521        1.14084
H         -1.17089       -2.10247       -0.36642
H          3.28069       -0.73697        0.08302
H          4.33527        0.16049       -2.00624
H          3.07923       -1.03800       -2.18717
H          3.01866        0.72957       -3.79239
H          1.60969        0.51562       -2.99905
H          5.55761        4.07387        2.02729
H          4.18532        2.52254        3.44580
H          2.91611        0.70281        2.29823

--Link1--
%chk=JID_5210.chk
%mem=8GB
%nprocshared=4
# B3LYP/6-311++G(d,p) empiricaldispersion=gd3bj scf=xqc pop=npa geom=check

CID_90219882_JID_5210_Energie_neutraal

0 1

--Link1--
%chk=JID_5210.chk
%mem=8GB
%nprocshared=4
# B3LYP/6-311++G(d,p) empiricaldispersion=gd3bj scf=xqc pop=npa geom=check

CID_90219882_JID_5210_Energie_kation

1 2

--Link1--
%chk=JID_5210.chk
%mem=8GB
%nprocshared=4
# B3LYP/6-311++G(d,p) empiricaldispersion=gd3bj scf=xqc pop=npa geom=check

CID_90219882_JID_5210_Energie_anion

-1 2
