%chk=JID_10261.chk
%mem=8GB
%nprocshared=4
# opt freq B3LYP/6-31G(d) empiricaldispersion=gd3bj scf=xqc

CID_105983240_JID_10261_neutraal

0 1
C          1.69800        0.03400       -0.78800
C          0.64094       -0.08264        0.30472
C          0.14245       -1.52695        0.48285
C         -1.36469       -1.48519        0.25999
C         -1.75346       -0.05652        0.59597
C         -0.61354        0.75429       -0.00906
N         -0.49436        2.09466        0.61283
S         -1.71305        3.19902        0.18799
O         -2.00817        3.08172       -1.22116
O         -2.73565        3.02561        1.19802
C         -0.92135        4.77852        0.45651
C          0.32663        5.11177       -0.11733
C          0.89981        6.36449        0.21400
C          0.19847        7.26199        1.03939
C         -1.04709        6.93332        1.58269
C         -1.60154        5.68696        1.28567
C         -1.79065        7.92738        2.43342
O         -2.43073        8.90018        1.61968
C          2.24437        6.79252       -0.31755
C          1.08194        4.16128       -1.01176
H          2.57541       -0.57286       -0.54108
H          1.31302       -0.30834       -1.75457
H          2.02735        1.07121       -0.90219
H          1.09693        0.24460        1.24888
H          0.62353       -2.24030       -0.19435
H          0.35421       -1.85853        1.50671
H         -1.89537       -2.21817        0.87447
H         -1.59084       -1.69791       -0.79175
H         -1.80879        0.07720        1.68343
H         -2.72669        0.21185        0.17382
H         -0.73468        0.84606       -1.09503
H         -0.48086        2.02686        1.63329
H          0.62984        8.23787        1.26388
H         -2.57457        5.42491        1.70039
H         -2.55327        7.43082        3.04242
H         -1.10621        8.43750        3.11933
H         -2.43800        8.56813        0.70543
H          2.99338        6.01351       -0.14226
H          2.17632        7.00597       -1.38875
H          2.60451        7.69782        0.18313
H          1.74461        3.53249       -0.40976
H          0.42135        3.52735       -1.60565
H          1.68873        4.69845       -1.74734

--Link1--
%chk=JID_10261.chk
%mem=8GB
%nprocshared=4
# B3LYP/6-311++G(d,p) empiricaldispersion=gd3bj scf=xqc pop=npa geom=check

CID_105983240_JID_10261_Energie_neutraal

0 1

--Link1--
%chk=JID_10261.chk
%mem=8GB
%nprocshared=4
# B3LYP/6-311++G(d,p) empiricaldispersion=gd3bj scf=xqc pop=npa geom=check

CID_105983240_JID_10261_Energie_kation

1 2

--Link1--
%chk=JID_10261.chk
%mem=8GB
%nprocshared=4
# B3LYP/6-311++G(d,p) empiricaldispersion=gd3bj scf=xqc pop=npa geom=check

CID_105983240_JID_10261_Energie_anion

-1 2
