%chk=JID_4542.chk
%mem=8GB
%nprocshared=4
# opt freq B3LYP/6-31G(d) empiricaldispersion=gd3bj scf=xqc

CID_24860900_JID_4542_neutraal

0 1
C          0.94769        0.07222        0.04525
C          0.36127       -1.22539       -0.52785
C          0.98753       -2.55588        0.07772
C          0.37929       -3.82845       -0.60367
C          0.73372       -3.97609       -2.08429
C          2.23887       -3.96963       -2.30888
C          2.89852       -2.75326       -1.67541
C          2.52867       -2.61698       -0.19827
C          0.75008       -2.61126        1.61476
C          1.61477       -2.24954        2.63867
C          1.05421       -2.42018        3.93723
C         -0.23051       -2.90276        3.88187
S         -0.75404       -3.14185        2.27787
N         -1.10274       -1.11711       -0.39911
H          0.76696        0.17062        1.12035
H          0.49602        0.94571       -0.44104
H          2.02411        0.14280       -0.13267
H          0.56317       -1.20130       -1.60362
H          0.73940       -4.72450       -0.07769
H         -0.71240       -3.85250       -0.51396
H          0.26637       -3.17489       -2.66740
H          0.31684       -4.91668       -2.46325
H          2.45436       -3.99182       -3.38304
H          2.67276       -4.88147       -1.87987
H          2.61739       -1.84732       -2.22337
H          3.98717       -2.84431       -1.76839
H          3.04349       -1.73928        0.20686
H          2.95530       -3.47918        0.33486
H          2.61599       -1.87042        2.47477
H          1.56868       -2.19657        4.86370
H         -0.89069       -3.12381        4.70933
H         -1.55245       -1.91238       -0.84859
H         -1.35104       -1.18832        0.59010

--Link1--
%chk=JID_4542.chk
%mem=8GB
%nprocshared=4
# B3LYP/6-311++G(d,p) empiricaldispersion=gd3bj scf=xqc pop=npa geom=check

CID_24860900_JID_4542_Energie_neutraal

0 1

--Link1--
%chk=JID_4542.chk
%mem=8GB
%nprocshared=4
# B3LYP/6-311++G(d,p) empiricaldispersion=gd3bj scf=xqc pop=npa geom=check

CID_24860900_JID_4542_Energie_kation

1 2

--Link1--
%chk=JID_4542.chk
%mem=8GB
%nprocshared=4
# B3LYP/6-311++G(d,p) empiricaldispersion=gd3bj scf=xqc pop=npa geom=check

CID_24860900_JID_4542_Energie_anion

-1 2
