%chk=JID_7489.chk
%mem=8GB
%nprocshared=4
# opt freq B3LYP/6-31G(d) empiricaldispersion=gd3bj scf=xqc

CID_152457166_JID_7489_neutraal

0 1
C          1.02004        0.01945        0.09602
C          0.03362       -0.01362       -1.05936
C         -0.10018       -1.38204       -1.72569
C         -0.27746       -2.56095       -0.76872
N          0.71595       -3.39881       -0.72694
N          0.55328       -4.42271        0.13866
C          1.46141       -5.43545        0.31622
C          0.97628       -6.30015        1.27226
C         -0.27549       -5.79141        1.69383
C         -0.51556       -4.63499        0.97585
C         -1.56847       -3.69627        0.92483
C         -1.53806       -2.67738        0.04431
C         -2.67698       -1.73137       -0.16185
O         -2.62202       -3.96230        1.77818
N         -2.67552       -2.92308        2.72256
N         -3.50756       -3.15304        3.61859
N         -4.27012       -3.35606        4.44070
H          0.67437       -0.58963        0.93674
H          1.13999        1.04560        0.45819
H          2.00348       -0.34615       -0.21596
H         -0.93843        0.34089       -0.70613
H          0.35722        0.70744       -1.82017
H         -0.92993       -1.37522       -2.44067
H          0.80418       -1.56552       -2.32177
H          2.37460       -5.44655       -0.26134
H          1.46963       -7.19687        1.62440
H         -0.93316       -6.22516        2.43612
H         -3.62423       -2.14802        0.19665
H         -2.50310       -0.79688        0.37881
H         -2.82769       -1.50860       -1.22176

--Link1--
%chk=JID_7489.chk
%mem=8GB
%nprocshared=4
# B3LYP/6-311++G(d,p) empiricaldispersion=gd3bj scf=xqc pop=npa geom=check

CID_152457166_JID_7489_Energie_neutraal

0 1

--Link1--
%chk=JID_7489.chk
%mem=8GB
%nprocshared=4
# B3LYP/6-311++G(d,p) empiricaldispersion=gd3bj scf=xqc pop=npa geom=check

CID_152457166_JID_7489_Energie_kation

1 2

--Link1--
%chk=JID_7489.chk
%mem=8GB
%nprocshared=4
# B3LYP/6-311++G(d,p) empiricaldispersion=gd3bj scf=xqc pop=npa geom=check

CID_152457166_JID_7489_Energie_anion

-1 2
