%chk=JID_3139.chk
%mem=8GB
%nprocshared=4
# opt freq B3LYP/6-31G(d) empiricaldispersion=gd3bj scf=xqc

CID_105439085_JID_3139_neutraal

0 1
C          0.95125       -0.07877       -0.03768
C          0.36750        0.53271       -1.31204
C          1.04288       -0.04767       -2.55699
C         -1.12483        0.38476       -1.38641
C         -1.93031       -0.75378       -1.31325
N         -3.24039       -0.40502       -1.49655
N         -3.30000        0.90091       -1.66711
N         -2.05164        1.39773       -1.58492
C         -1.90069        2.83530       -1.71939
C         -0.91884        3.67154       -0.92410
C         -0.74123        3.53116       -2.40058
C         -1.59014       -2.19038       -1.11185
N         -1.71144       -2.53257        0.30244
H          0.89891       -1.17110       -0.04095
H          0.42727        0.28613        0.85256
H          2.00863        0.19088        0.06351
H          0.64908        1.58214       -1.27567
H          0.89197       -1.12812       -2.64307
H          0.64907        0.41557       -3.46859
H          2.12282        0.13428       -2.52929
H         -2.87243        3.30265       -1.87809
H         -1.27312        4.62537       -0.54422
H         -0.23181        3.18477       -0.24542
H          0.07939        2.94776       -2.79367
H         -0.97453        4.39099       -3.02195
H         -2.27553       -2.81668       -1.69309
H         -0.57821       -2.41092       -1.46079
H         -1.40331       -3.49096        0.44456
H         -1.10238       -1.93532        0.85546

--Link1--
%chk=JID_3139.chk
%mem=8GB
%nprocshared=4
# B3LYP/6-311++G(d,p) empiricaldispersion=gd3bj scf=xqc pop=npa geom=check

CID_105439085_JID_3139_Energie_neutraal

0 1

--Link1--
%chk=JID_3139.chk
%mem=8GB
%nprocshared=4
# B3LYP/6-311++G(d,p) empiricaldispersion=gd3bj scf=xqc pop=npa geom=check

CID_105439085_JID_3139_Energie_kation

1 2

--Link1--
%chk=JID_3139.chk
%mem=8GB
%nprocshared=4
# B3LYP/6-311++G(d,p) empiricaldispersion=gd3bj scf=xqc pop=npa geom=check

CID_105439085_JID_3139_Energie_anion

-1 2
