%chk=JID_7421.chk
%mem=8GB
%nprocshared=4
# opt freq B3LYP/6-31G(d) empiricaldispersion=gd3bj scf=xqc

CID_60372274_JID_7421_neutraal

0 1
C          0.92357        0.02737        0.05839
C         -0.08202        0.97077       -0.58922
C         -0.12692        0.83359       -2.11105
O         -0.80259       -0.37540       -2.47753
C          0.01007       -1.34956       -3.00538
C          0.85769       -1.10261       -4.08714
C          1.65953       -2.12812       -4.58421
C          1.59003       -3.40132       -4.02053
C          0.71390       -3.65959       -2.96110
C         -0.08107       -2.63668       -2.44201
N         -1.02246       -2.81199       -1.40824
C         -1.19537       -3.77392       -0.45829
O         -2.22358       -3.79968        0.21532
C         -0.05597       -4.67161       -0.14720
C         -0.16680       -5.96604        0.20670
C          1.05255       -6.75403        0.60139
C         -1.45479       -6.74204        0.24498
H          1.92037        0.15698       -0.37482
H          0.63001       -1.01772       -0.05454
H          0.99229        0.23465        1.13125
H         -1.07372        0.77490       -0.16554
H          0.19327        2.00044       -0.33418
H         -0.72132        1.65727       -2.52224
H          0.88306        0.92784       -2.52640
H          0.89019       -0.12451       -4.55735
H          2.32483       -1.94029       -5.42331
H          2.19970       -4.20607       -4.42501
H          0.64001       -4.68014       -2.60201
H         -1.71752       -2.07325       -1.34683
H          0.91276       -4.18185       -0.15109
H          0.93804       -7.14332        1.61840
H          1.19860       -7.59727       -0.08121
H          1.96382       -6.14671        0.57998
H         -2.28076       -6.23424       -0.25916
H         -1.32778       -7.70513       -0.26154
H         -1.74815       -6.93511        1.28167

--Link1--
%chk=JID_7421.chk
%mem=8GB
%nprocshared=4
# B3LYP/6-311++G(d,p) empiricaldispersion=gd3bj scf=xqc pop=npa geom=check

CID_60372274_JID_7421_Energie_neutraal

0 1

--Link1--
%chk=JID_7421.chk
%mem=8GB
%nprocshared=4
# B3LYP/6-311++G(d,p) empiricaldispersion=gd3bj scf=xqc pop=npa geom=check

CID_60372274_JID_7421_Energie_kation

1 2

--Link1--
%chk=JID_7421.chk
%mem=8GB
%nprocshared=4
# B3LYP/6-311++G(d,p) empiricaldispersion=gd3bj scf=xqc pop=npa geom=check

CID_60372274_JID_7421_Energie_anion

-1 2
