%chk=JID_4175.chk
%mem=8GB
%nprocshared=4
# opt freq B3LYP/6-31G(d) empiricaldispersion=gd3bj scf=xqc

CID_87313630_JID_4175_neutraal

0 1
C          1.00905        0.09201       -0.03811
C         -0.19126        0.50913        0.38832
C         -1.49139       -0.18208        0.07306
N         -2.24926       -0.70394        1.22483
C         -2.70460        0.32472        2.16738
C         -3.76038        1.21600        1.57415
C         -5.04654        1.22213        1.95126
C         -1.53018       -1.78080        1.92824
C         -1.51766       -3.07812        1.14182
C         -0.35662       -3.64033        0.75397
C         -2.85370       -3.73186        0.83380
C         -3.58437       -4.15353        2.08399
C         -4.78718       -3.72379        2.49392
O         -3.65912       -2.86479        0.04620
H          1.11848       -0.80536       -0.63972
H          1.91002        0.64557        0.20737
H         -0.24547        1.42511        0.97049
H         -2.11749        0.52130       -0.48902
H         -1.31587       -0.99804       -0.63985
H         -3.14163       -0.15945        3.05126
H         -1.87639        0.93525        2.54495
H         -3.44404        1.91336        0.80287
H         -5.75900        1.89564        1.48515
H         -5.42018        0.54885        2.71664
H         -0.51576       -1.46709        2.20503
H         -2.02384       -2.00328        2.88343
H         -0.33531       -4.57015        0.19328
H          0.60044       -3.17871        0.97712
H         -2.70098       -4.63471        0.23049
H         -3.06851       -4.89211        2.69407
H         -5.23182       -4.09909        3.40944
H         -5.35545       -2.99810        1.91930
H         -3.48477       -1.96164        0.38202

--Link1--
%chk=JID_4175.chk
%mem=8GB
%nprocshared=4
# B3LYP/6-311++G(d,p) empiricaldispersion=gd3bj scf=xqc pop=npa geom=check

CID_87313630_JID_4175_Energie_neutraal

0 1

--Link1--
%chk=JID_4175.chk
%mem=8GB
%nprocshared=4
# B3LYP/6-311++G(d,p) empiricaldispersion=gd3bj scf=xqc pop=npa geom=check

CID_87313630_JID_4175_Energie_kation

1 2

--Link1--
%chk=JID_4175.chk
%mem=8GB
%nprocshared=4
# B3LYP/6-311++G(d,p) empiricaldispersion=gd3bj scf=xqc pop=npa geom=check

CID_87313630_JID_4175_Energie_anion

-1 2
