%chk=JID_1286.chk
%mem=8GB
%nprocshared=4
# opt freq B3LYP/6-31G(d) empiricaldispersion=gd3bj scf=xqc

CID_123889095_JID_1286_neutraal

0 1
C          1.08867        0.02110       -0.04115
C          0.59244        0.90710       -1.17797
C          1.11704        0.49143       -2.57379
C          0.73679       -0.97394       -2.86409
C          0.59757        1.41643       -3.72702
C          0.72006        2.91824       -3.40153
O          1.19779        3.79944       -4.11022
N          1.13619        1.03892       -5.05910
C          0.52497        1.74872       -6.17807
C          2.58622        0.88016       -5.20995
C          3.46938        2.09234       -4.94843
H          0.64220       -0.97655       -0.08139
H          0.81183        0.46113        0.92268
H          2.17822       -0.07948       -0.06596
H         -0.50400        0.92076       -1.17432
H          0.93084        1.92224       -0.94615
H          2.21074        0.56219       -2.52654
H         -0.34822       -1.11435       -2.80399
H          1.05945       -1.29626       -3.85824
H          1.20874       -1.65740       -2.15195
H         -0.48921        1.25215       -3.77625
H          0.23714        3.22245       -2.45866
H          0.89617        2.76955       -6.30115
H          0.71977        1.21200       -7.11382
H         -0.56480        1.78665       -6.07151
H          2.93311        0.06026       -4.57104
H          2.79423        0.52325       -6.22746
H          3.42240        2.40926       -3.90274
H          4.51415        1.83877       -5.15873
H          3.20341        2.93475       -5.59317

--Link1--
%chk=JID_1286.chk
%mem=8GB
%nprocshared=4
# B3LYP/6-311++G(d,p) empiricaldispersion=gd3bj scf=xqc pop=npa geom=check

CID_123889095_JID_1286_Energie_neutraal

0 1

--Link1--
%chk=JID_1286.chk
%mem=8GB
%nprocshared=4
# B3LYP/6-311++G(d,p) empiricaldispersion=gd3bj scf=xqc pop=npa geom=check

CID_123889095_JID_1286_Energie_kation

1 2

--Link1--
%chk=JID_1286.chk
%mem=8GB
%nprocshared=4
# B3LYP/6-311++G(d,p) empiricaldispersion=gd3bj scf=xqc pop=npa geom=check

CID_123889095_JID_1286_Energie_anion

-1 2
