%chk=JID_2757.chk
%mem=8GB
%nprocshared=4
# opt freq B3LYP/6-31G(d) empiricaldispersion=gd3bj scf=xqc

CID_126995834_JID_2757_neutraal

0 1
C          0.96409        0.09322        0.00462
C          0.32566        0.23527        1.38551
C          0.65669        1.61685        1.96156
C         -1.20765        0.03534        1.37827
N         -1.73455       -1.23508        0.89315
C         -2.11981       -1.28141       -0.51285
C         -2.52404       -2.68544       -1.01084
C         -3.05525       -3.51529        0.14427
C         -1.73497       -3.75441        0.85808
C         -1.19032       -2.45289        1.49522
O         -0.83016       -4.14237       -0.20248
C         -1.29672       -3.50346       -1.40286
H          0.50682        0.77818       -0.71713
H          0.86528       -0.92783       -0.37562
H          2.03563        0.31711        0.04750
H          0.78227       -0.50608        2.05244
H          0.24444        2.41725        1.33765
H          0.24580        1.72660        2.97080
H          1.74031        1.76216        2.02668
H         -1.56357        0.15433        2.41064
H         -1.67864        0.86013        0.82634
H         -2.99235       -0.62658       -0.63354
H         -1.33991       -0.87480       -1.16466
H         -3.22871       -2.59578       -1.84330
H         -3.47312       -4.45866       -0.22685
H         -3.80934       -3.01205        0.75660
H         -1.78308       -4.56243        1.59380
H         -0.09701       -2.46997        1.43301
H         -1.46751       -2.45062        2.55591
H         -0.48874       -2.91079       -1.84172
H         -1.56417       -4.29669       -2.10935

--Link1--
%chk=JID_2757.chk
%mem=8GB
%nprocshared=4
# B3LYP/6-311++G(d,p) empiricaldispersion=gd3bj scf=xqc pop=npa geom=check

CID_126995834_JID_2757_Energie_neutraal

0 1

--Link1--
%chk=JID_2757.chk
%mem=8GB
%nprocshared=4
# B3LYP/6-311++G(d,p) empiricaldispersion=gd3bj scf=xqc pop=npa geom=check

CID_126995834_JID_2757_Energie_kation

1 2

--Link1--
%chk=JID_2757.chk
%mem=8GB
%nprocshared=4
# B3LYP/6-311++G(d,p) empiricaldispersion=gd3bj scf=xqc pop=npa geom=check

CID_126995834_JID_2757_Energie_anion

-1 2
