%chk=JID_15.chk
%mem=8GB
%nprocshared=4
# opt freq B3LYP/6-31G(d) empiricaldispersion=gd3bj scf=xqc

CID_118970001_JID_15_neutraal

0 1
C          0.97148       -0.01652        0.09441
N          0.25374        1.24667        0.11360
C          0.91266        2.35698       -0.28497
C          0.65601        3.38010        0.56657
C         -0.21470        2.98714        1.61131
O         -0.74845        3.68024        2.45951
N         -0.36471        1.60309        1.40382
N          1.36240        4.43346        0.10809
C          2.06545        3.95004       -0.98270
N          1.81971        2.66848       -1.22453
H          1.33373       -0.24230       -0.91458
H          0.30447       -0.83104        0.39605
H          1.82679       -0.00048        0.77957
H         -1.25141        1.17332        1.63692
H          1.40389        5.36711        0.49496
H          2.74202        4.57942       -1.54624

--Link1--
%chk=JID_15.chk
%mem=8GB
%nprocshared=4
# B3LYP/6-311++G(d,p) empiricaldispersion=gd3bj scf=xqc pop=npa geom=check

CID_118970001_JID_15_Energie_neutraal

0 1

--Link1--
%chk=JID_15.chk
%mem=8GB
%nprocshared=4
# B3LYP/6-311++G(d,p) empiricaldispersion=gd3bj scf=xqc pop=npa geom=check

CID_118970001_JID_15_Energie_kation

1 2

--Link1--
%chk=JID_15.chk
%mem=8GB
%nprocshared=4
# B3LYP/6-311++G(d,p) empiricaldispersion=gd3bj scf=xqc pop=npa geom=check

CID_118970001_JID_15_Energie_anion

-1 2
