%chk=JID_7497.chk
%mem=8GB
%nprocshared=4
# opt freq B3LYP/6-31G(d) empiricaldispersion=gd3bj scf=xqc

CID_108141043_JID_7497_neutraal

0 1
C          0.97374       -0.04409       -0.08583
C          0.46707        1.21301        0.60220
C          1.03979        2.53768        0.06195
N          0.71679        2.92621       -1.32711
C         -0.62946        3.44859       -1.58180
C          1.26070        2.20472       -2.38869
N          0.40033        1.51647       -3.17460
C          0.88218        0.77388       -4.18033
N          2.17265        0.68686       -4.50913
C          3.02677        1.39237       -3.74540
C          2.60759        2.15524       -2.68198
N          3.58070        2.92765       -1.98322
O          3.61499        4.14456       -2.20216
O          4.35439        2.30453       -1.24270
N         -0.02132        0.06868       -4.94096
C         -1.05293        1.21301        0.60220
N         -2.31390        1.21301        0.60220
H          0.54145       -0.18023       -1.08071
H          0.69950       -0.93287        0.49500
H          2.06483       -0.03289       -0.17457
H          0.77656        1.14797        1.65455
H          0.69567        3.35052        0.71643
H          2.12582        2.52042        0.19914
H         -0.63201        4.07187       -2.48397
H         -1.37110        2.65414       -1.71020
H         -0.95416        4.09043       -0.75562
H          4.07131        1.32484       -4.03621
H          0.34846       -0.10796       -5.86413
H         -0.94109        0.48266       -4.87771

--Link1--
%chk=JID_7497.chk
%mem=8GB
%nprocshared=4
# B3LYP/6-311++G(d,p) empiricaldispersion=gd3bj scf=xqc pop=npa geom=check

CID_108141043_JID_7497_Energie_neutraal

0 1

--Link1--
%chk=JID_7497.chk
%mem=8GB
%nprocshared=4
# B3LYP/6-311++G(d,p) empiricaldispersion=gd3bj scf=xqc pop=npa geom=check

CID_108141043_JID_7497_Energie_kation

1 2

--Link1--
%chk=JID_7497.chk
%mem=8GB
%nprocshared=4
# B3LYP/6-311++G(d,p) empiricaldispersion=gd3bj scf=xqc pop=npa geom=check

CID_108141043_JID_7497_Energie_anion

-1 2
