%chk=JID_7676.chk
%mem=8GB
%nprocshared=4
# opt freq B3LYP/6-31G(d) empiricaldispersion=gd3bj scf=xqc

CID_152545161_JID_7676_neutraal

0 1
C          0.93496        0.04810       -0.05879
C          0.09401        0.56853       -1.23538
C          0.33367       -0.33079       -2.45218
C         -1.37862        0.58005       -0.81088
O          0.60180        1.90431       -1.48022
C          0.05040        2.71154       -2.42124
O         -0.91745        2.41091       -3.10728
N          0.71665        3.91964       -2.52185
C          1.94430        4.23765       -1.80431
C          3.06996        4.50917       -2.79856
C          2.67898        5.60600       -3.80727
C          1.34084        5.25257       -4.48255
C          0.25740        4.93954       -3.45320
N          3.74104        5.64732       -4.81940
N          3.74506        6.63313       -5.57752
N          3.76612        7.53605       -6.27240
O          2.52104        6.82812       -3.09224
H          0.65937       -0.97515        0.21720
H          0.81159        0.68976        0.82155
H          2.00306        0.06426       -0.30551
H          0.08669       -1.37488       -2.23248
H         -0.26911       -0.02085       -3.31141
H          1.38086       -0.28055       -2.77181
H         -1.55150        1.32196       -0.02350
H         -2.04357        0.83794       -1.64041
H         -1.69267       -0.40195       -0.44036
H          2.24451        3.43078       -1.13019
H          1.74795        5.11940       -1.18350
H          3.30955        3.58069       -3.33438
H          3.96988        4.80452       -2.24540
H          0.99620        6.08432       -5.10904
H          1.47479        4.38355       -5.14011
H         -0.65808        4.62380       -3.96380
H          0.00820        5.83267       -2.86801
H          3.40295        7.06173       -2.75418

--Link1--
%chk=JID_7676.chk
%mem=8GB
%nprocshared=4
# B3LYP/6-311++G(d,p) empiricaldispersion=gd3bj scf=xqc pop=npa geom=check

CID_152545161_JID_7676_Energie_neutraal

0 1

--Link1--
%chk=JID_7676.chk
%mem=8GB
%nprocshared=4
# B3LYP/6-311++G(d,p) empiricaldispersion=gd3bj scf=xqc pop=npa geom=check

CID_152545161_JID_7676_Energie_kation

1 2

--Link1--
%chk=JID_7676.chk
%mem=8GB
%nprocshared=4
# B3LYP/6-311++G(d,p) empiricaldispersion=gd3bj scf=xqc pop=npa geom=check

CID_152545161_JID_7676_Energie_anion

-1 2
