%chk=JID_354.chk
%mem=8GB
%nprocshared=4
# opt freq B3LYP/6-31G(d) empiricaldispersion=gd3bj scf=xqc

CID_55289460_JID_354_neutraal

0 1
C          0.93729        0.00314        0.07783
C          0.28848       -0.69536       -1.10938
C          0.40835       -2.23447       -1.07024
C         -0.29431       -2.85919        0.15870
O         -1.71540       -2.74963        0.06328
N         -0.20945       -2.71146       -2.32243
C          0.54267       -3.76316       -3.00685
C          0.48965       -5.16029       -2.37825
C         -0.90489       -5.77815       -2.24909
N         -1.54412       -5.98988       -3.54383
H          0.39548       -0.19371        1.00707
H          0.93471        1.08679       -0.07903
H          1.97604       -0.31759        0.20399
H         -0.76145       -0.38396       -1.17344
H          0.77647       -0.32446       -2.02096
H          1.47595       -2.48515       -1.03020
H         -0.06191       -3.92522        0.23145
H          0.02920       -2.40027        1.09692
H         -1.92997       -1.80245        0.00845
H         -1.16041       -3.02730       -2.11622
H          0.16063       -3.82215       -4.03252
H          1.59073       -3.45599       -3.11296
H          1.11468       -5.82915       -2.98500
H          0.96059       -5.13671       -1.38906
H         -0.81014       -6.74984       -1.75163
H         -1.55132       -5.16142       -1.61733
H         -2.45433       -6.42637       -3.39804
H         -1.73882       -5.08905       -3.98094

--Link1--
%chk=JID_354.chk
%mem=8GB
%nprocshared=4
# B3LYP/6-311++G(d,p) empiricaldispersion=gd3bj scf=xqc pop=npa geom=check

CID_55289460_JID_354_Energie_neutraal

0 1

--Link1--
%chk=JID_354.chk
%mem=8GB
%nprocshared=4
# B3LYP/6-311++G(d,p) empiricaldispersion=gd3bj scf=xqc pop=npa geom=check

CID_55289460_JID_354_Energie_kation

1 2

--Link1--
%chk=JID_354.chk
%mem=8GB
%nprocshared=4
# B3LYP/6-311++G(d,p) empiricaldispersion=gd3bj scf=xqc pop=npa geom=check

CID_55289460_JID_354_Energie_anion

-1 2
