%chk=JID_10667.chk
%mem=8GB
%nprocshared=4
# opt freq B3LYP/6-31G(d) empiricaldispersion=gd3bj scf=xqc

CID_390043_JID_10667_neutraal

0 1
C         -2.27400        0.00600        0.07700
O         -1.49569        1.06763        0.66840
C         -0.28359        0.46311        0.78217
C         -0.29239       -0.82603        0.30744
O         -1.51392       -1.19678       -0.16262
C          0.83554       -1.62141        0.33287
C          2.02033       -1.07755        0.85330
C          2.01186        0.24457        1.35436
C          0.85287        1.02878        1.31410
C          3.26365       -1.85565        0.95113
C          3.62868       -2.80694        0.07830
C          4.87800       -3.55839        0.29969
O          4.83522       -4.74387        0.61017
N          6.06130       -2.92150        0.10883
C          6.32052       -1.58792       -0.39250
C          6.92241       -0.77723        0.69278
C          6.50659        0.34041        1.38692
C          7.53714        0.64547        2.30851
C          8.51707       -0.29918        2.11489
O          8.15639       -1.16416        1.13286
H         -2.68062        0.35954       -0.87748
H         -3.10749       -0.23327        0.74751
H          0.77925       -2.64196       -0.02958
H          2.91587        0.67466        1.78060
H          0.84612        2.04411        1.69388
H          3.90881       -1.62076        1.79600
H          3.02914       -3.12672       -0.76341
H          6.87106       -3.48828        0.32730
H          7.03028       -1.68740       -1.22043
H          5.41323       -1.12161       -0.78407
H          5.57466        0.86886        1.24464
H          7.56558        1.45381        3.02559
H          9.48062       -0.48397        2.56940

--Link1--
%chk=JID_10667.chk
%mem=8GB
%nprocshared=4
# B3LYP/6-311++G(d,p) empiricaldispersion=gd3bj scf=xqc pop=npa geom=check

CID_390043_JID_10667_Energie_neutraal

0 1

--Link1--
%chk=JID_10667.chk
%mem=8GB
%nprocshared=4
# B3LYP/6-311++G(d,p) empiricaldispersion=gd3bj scf=xqc pop=npa geom=check

CID_390043_JID_10667_Energie_kation

1 2

--Link1--
%chk=JID_10667.chk
%mem=8GB
%nprocshared=4
# B3LYP/6-311++G(d,p) empiricaldispersion=gd3bj scf=xqc pop=npa geom=check

CID_390043_JID_10667_Energie_anion

-1 2
