%chk=JID_5919.chk
%mem=8GB
%nprocshared=4
# opt freq B3LYP/6-31G(d) empiricaldispersion=gd3bj scf=xqc

CID_60724847_JID_5919_neutraal

0 1
C          1.01664       -0.09469        0.02751
C          0.19724        1.03052        0.66996
C          0.53584        2.36022       -0.00900
C         -1.31880        0.76899        0.58328
C         -1.78275       -0.31407        1.48848
N         -2.41487       -0.06912        2.64389
O         -2.63767       -1.34880        3.16297
C         -2.11849       -2.22566        2.25481
N         -1.60038       -1.64045        1.19763
C         -2.16725       -3.67630        2.59380
N         -1.12002       -4.05177        3.55483
C         -0.71338       -5.45932        3.41478
C          0.27558       -5.66682        2.25349
O          1.33676       -4.71330        2.38217
C          2.22320       -4.75502        1.27281
H          0.72547       -0.25200       -1.01654
H          0.88950       -1.03940        0.56414
H          2.08522        0.14588        0.04656
H          0.49196        1.10793        1.72477
H          0.26140        2.34641       -1.06927
H          0.00236        3.18837        0.46955
H          1.60807        2.57201        0.06175
H         -1.86221        1.68934        0.83484
H         -1.60004        0.52036       -0.44775
H         -3.14764       -3.92457        3.01500
H         -2.06971       -4.23204        1.65420
H         -0.27660       -3.49994        3.35347
H         -0.20237       -5.72931        4.34629
H         -1.57934       -6.12383        3.31957
H          0.69059       -6.67982        2.29580
H         -0.22745       -5.53031        1.28982
H          2.67036       -5.74863        1.17541
H          1.69552       -4.48506        0.35303
H          3.02041       -4.02624        1.44266

--Link1--
%chk=JID_5919.chk
%mem=8GB
%nprocshared=4
# B3LYP/6-311++G(d,p) empiricaldispersion=gd3bj scf=xqc pop=npa geom=check

CID_60724847_JID_5919_Energie_neutraal

0 1

--Link1--
%chk=JID_5919.chk
%mem=8GB
%nprocshared=4
# B3LYP/6-311++G(d,p) empiricaldispersion=gd3bj scf=xqc pop=npa geom=check

CID_60724847_JID_5919_Energie_kation

1 2

--Link1--
%chk=JID_5919.chk
%mem=8GB
%nprocshared=4
# B3LYP/6-311++G(d,p) empiricaldispersion=gd3bj scf=xqc pop=npa geom=check

CID_60724847_JID_5919_Energie_anion

-1 2
