%chk=JID_9408.chk
%mem=8GB
%nprocshared=4
# opt freq B3LYP/6-31G(d) empiricaldispersion=gd3bj scf=xqc

CID_113705169_JID_9408_neutraal

0 1
C          1.01167       -0.01076       -0.09873
O          1.02674       -1.43950       -0.13825
C          1.17550       -1.86662       -1.43506
C          0.08676       -1.96427       -2.32082
C          0.30996       -2.34735       -3.66008
C          1.62523       -2.69292       -4.07651
C          2.67862       -2.64374       -3.13857
C          2.45594       -2.23742       -1.82841
C          1.98340       -3.13058       -5.50205
C          1.68166       -4.61962       -5.75670
C          2.20282       -5.70279       -4.76233
C          1.02842       -6.58571       -5.23897
C          0.27949       -5.27540       -5.56700
N          1.36987       -2.23303       -6.51232
N          1.86011       -2.50530       -7.84665
O         -0.63346       -2.42335       -4.65639
C         -2.00894       -2.26859       -4.34846
O         -1.17245       -1.61241       -1.89912
C         -1.63721       -2.43705       -0.82790
H          0.94589        0.29244        0.95049
H          0.14041        0.39654       -0.62221
H          1.93564        0.40695       -0.51418
H          3.69001       -2.91585       -3.43485
H          3.27973       -2.19151       -1.12206
H          3.06971       -2.99688       -5.60795
H          2.06825       -4.86213       -6.76247
H          3.20236       -6.09372       -4.97000
H          2.13810       -5.44490       -3.70014
H          0.56876       -7.21918       -4.47646
H          1.26074       -7.19611       -6.11924
H         -0.31131       -4.91885       -4.71923
H         -0.35491       -5.30177       -6.45658
H          0.35153       -2.35133       -6.42725
H          1.38783       -1.90059       -8.52541
H          2.84889       -2.24784       -7.92118
H         -2.57270       -2.45884       -5.26747
H         -2.33948       -3.00869       -3.61368
H         -2.23510       -1.24367       -4.04077
H         -1.21669       -3.44904       -0.85660
H         -1.43084       -1.96062        0.13459
H         -2.72378       -2.52414       -0.92620

--Link1--
%chk=JID_9408.chk
%mem=8GB
%nprocshared=4
# B3LYP/6-311++G(d,p) empiricaldispersion=gd3bj scf=xqc pop=npa geom=check

CID_113705169_JID_9408_Energie_neutraal

0 1

--Link1--
%chk=JID_9408.chk
%mem=8GB
%nprocshared=4
# B3LYP/6-311++G(d,p) empiricaldispersion=gd3bj scf=xqc pop=npa geom=check

CID_113705169_JID_9408_Energie_kation

1 2

--Link1--
%chk=JID_9408.chk
%mem=8GB
%nprocshared=4
# B3LYP/6-311++G(d,p) empiricaldispersion=gd3bj scf=xqc pop=npa geom=check

CID_113705169_JID_9408_Energie_anion

-1 2
