%chk=JID_8956.chk
%mem=8GB
%nprocshared=4
# opt freq B3LYP/6-31G(d) empiricaldispersion=gd3bj scf=xqc

CID_21323357_JID_8956_neutraal

0 1
C          0.95685        0.08854       -0.01730
C          0.56744        0.67994       -1.33805
C         -0.07469        1.92276       -1.39525
C         -0.38764        2.53949       -2.62288
C         -0.06569        1.87783       -3.81997
C          0.59497        0.63457       -3.75330
C          0.91026        0.04383       -2.52894
C         -0.33473        2.47788       -5.14720
C         -0.91951        1.72211       -6.09772
C         -0.00700        3.81707       -5.50898
N          0.50974        4.27550       -6.63645
N          0.55688        5.63962       -6.56984
C          0.03576        5.99218       -5.42084
N         -0.33799        4.88362       -4.67576
C         -0.94408        4.87042       -3.41504
C         -1.03486        3.85865       -2.53978
S         -0.05662        7.62638       -4.84224
C          1.69816        8.05562       -4.91407
H          0.95468       -1.00560       -0.06411
H          0.24988        0.38016        0.76654
H          1.95794        0.42864        0.26511
H         -0.31081        2.42902       -0.45987
H          0.89449        0.12183       -4.66606
H          1.43473       -0.90911       -2.51624
H         -1.22296        0.69516       -5.92044
H         -1.12537        2.11639       -7.09058
H         -1.37086        5.82371       -3.11362
H         -1.55786        4.05718       -1.60447
H          2.27727        7.38695       -4.27019
H          2.07597        7.98882       -5.93768
H          1.83334        9.08016       -4.55768

--Link1--
%chk=JID_8956.chk
%mem=8GB
%nprocshared=4
# B3LYP/6-311++G(d,p) empiricaldispersion=gd3bj scf=xqc pop=npa geom=check

CID_21323357_JID_8956_Energie_neutraal

0 1

--Link1--
%chk=JID_8956.chk
%mem=8GB
%nprocshared=4
# B3LYP/6-311++G(d,p) empiricaldispersion=gd3bj scf=xqc pop=npa geom=check

CID_21323357_JID_8956_Energie_kation

1 2

--Link1--
%chk=JID_8956.chk
%mem=8GB
%nprocshared=4
# B3LYP/6-311++G(d,p) empiricaldispersion=gd3bj scf=xqc pop=npa geom=check

CID_21323357_JID_8956_Energie_anion

-1 2
