%chk=JID_1790.chk
%mem=8GB
%nprocshared=4
# opt freq B3LYP/6-31G(d) empiricaldispersion=gd3bj scf=xqc

CID_91115484_JID_1790_neutraal

0 1
C          0.91265        0.00471       -0.04846
C         -0.33027       -0.27479        0.76560
C          3.14148        3.24214        1.33226
N          2.17837        4.08245        2.03728
C          0.89232        4.08059        1.34615
C          2.05338        3.74454        3.46588
C          1.43956        2.37795        3.86984
C          1.28485        2.26654        5.38474
C          1.18099        0.77176        5.64060
C          1.72214        0.11467        4.38013
N          2.26851        1.19688        3.55686
H          0.88431        1.01863       -0.45831
H          1.80807       -0.09237        0.57227
H          0.99374       -0.70088       -0.88063
H         -0.41913        0.43840        1.59018
H         -1.22500       -0.19213        0.14149
H         -0.29518       -1.28442        1.18567
H          3.34456        3.65917        0.33913
H          2.79207        2.21541        1.19199
H          4.10142        3.21822        1.85965
H          0.45766        3.07902        1.26253
H          0.17413        4.72814        1.86116
H          1.00496        4.48360        0.33327
H          3.04490        3.84498        3.92881
H          1.45121        4.53440        3.93581
H          0.45506        2.25863        3.40106
H          2.16470        2.66682        5.90434
H          0.40506        2.80448        5.75213
H          1.75838        0.49055        6.52750
H          0.13883        0.47790        5.80753
H          2.48736       -0.63475        4.60542
H          0.91553       -0.39016        3.83685
H          3.22602        1.38751        3.85388

--Link1--
%chk=JID_1790.chk
%mem=8GB
%nprocshared=4
# B3LYP/6-311++G(d,p) empiricaldispersion=gd3bj scf=xqc pop=npa geom=check

CID_91115484_JID_1790_Energie_neutraal

0 1

--Link1--
%chk=JID_1790.chk
%mem=8GB
%nprocshared=4
# B3LYP/6-311++G(d,p) empiricaldispersion=gd3bj scf=xqc pop=npa geom=check

CID_91115484_JID_1790_Energie_kation

1 2

--Link1--
%chk=JID_1790.chk
%mem=8GB
%nprocshared=4
# B3LYP/6-311++G(d,p) empiricaldispersion=gd3bj scf=xqc pop=npa geom=check

CID_91115484_JID_1790_Energie_anion

-1 2
