%chk=JID_10881.chk
%mem=8GB
%nprocshared=4
# opt freq B3LYP/6-31G(d) empiricaldispersion=gd3bj scf=xqc

CID_141689183_JID_10881_neutraal

0 1
C          0.96031        0.04587       -0.07951
C          0.53299        0.06611       -1.54872
C          0.18160       -1.35416       -2.00075
C         -0.66765        1.00243       -1.79475
C         -0.41460        2.46135       -1.49599
C         -0.91287        3.03948       -0.38432
C         -0.59867        4.50229       -0.09824
C         -0.79265        5.28931       -1.39793
C         -0.27672        4.73775       -2.51921
C          0.41759        3.36950       -2.42324
C          1.82887        3.54827       -1.77952
C          1.95433        4.60986       -0.65953
C          0.87446        4.63555        0.47257
C          0.99288        5.98099        1.22127
O          1.03585        3.57801        1.44783
C          2.32740        3.34748        1.98174
C          0.55614        2.80876       -3.84936
C         -1.52852        6.59868       -1.36985
C         -2.99457        6.40987       -1.10538
C         -3.64942        6.93641       -0.06215
H          0.13040       -0.24930        0.57152
H          1.31681        1.02514        0.24811
H          1.77890       -0.66529        0.07576
H          1.38942        0.39964       -2.14521
H         -0.66251       -1.75621       -1.42992
H         -0.08805       -1.36916       -3.06204
H          1.03391       -2.02830       -1.86437
H         -1.01371        0.90310       -2.83044
H         -1.51262        0.64930       -1.18643
H         -1.47579        2.48251        0.35709
H         -1.32346        4.82919        0.65797
H         -0.34479        5.24076       -3.47866
H          2.19087        2.58835       -1.39185
H          2.54730        3.83157       -2.56154
H          2.95841        4.51949       -0.22951
H          1.96290        5.59248       -1.15313
H          0.30237        6.01391        2.07154
H          1.99799        6.12840        1.62917
H          0.78613        6.83440        0.57016
H          2.98207        2.89515        1.23251
H          2.77595        4.25706        2.38597
H          2.22619        2.63004        2.80150
H         -0.42262        2.64481       -4.31580
H          1.10883        3.50242       -4.49514
H          1.10239        1.86060       -3.86625
H         -1.07757        7.26178       -0.62426
H         -1.42327        7.11272       -2.33351
H         -3.54452        5.80352       -1.82281
H         -4.71226        6.75916        0.07095
H         -3.14525        7.54632        0.68075

--Link1--
%chk=JID_10881.chk
%mem=8GB
%nprocshared=4
# B3LYP/6-311++G(d,p) empiricaldispersion=gd3bj scf=xqc pop=npa geom=check

CID_141689183_JID_10881_Energie_neutraal

0 1

--Link1--
%chk=JID_10881.chk
%mem=8GB
%nprocshared=4
# B3LYP/6-311++G(d,p) empiricaldispersion=gd3bj scf=xqc pop=npa geom=check

CID_141689183_JID_10881_Energie_kation

1 2

--Link1--
%chk=JID_10881.chk
%mem=8GB
%nprocshared=4
# B3LYP/6-311++G(d,p) empiricaldispersion=gd3bj scf=xqc pop=npa geom=check

CID_141689183_JID_10881_Energie_anion

-1 2
