%chk=JID_8104.chk
%mem=8GB
%nprocshared=4
# opt freq B3LYP/6-31G(d) empiricaldispersion=gd3bj scf=xqc

CID_104735746_JID_8104_neutraal

0 1
C          0.95099        0.07200       -0.04913
C          0.36997       -1.34179       -0.00247
C          0.77058       -2.01574        1.31633
C         -1.16899       -1.41418       -0.23909
C         -1.50482       -1.24412       -1.72903
C         -3.00614       -1.21384       -2.01069
C         -3.56627        0.20469       -2.04939
C         -3.60751        1.01993       -0.74010
C         -2.37611        0.86972        0.17959
C         -2.01109       -0.52366        0.69476
C         -4.97460        0.94773        0.00496
C         -5.41000       -0.32258        0.67376
C         -5.99514       -1.36335       -0.03954
N         -6.41550       -2.52354        0.51286
C         -6.26160       -2.65145        1.84756
C         -5.71220       -1.67107        2.65507
C         -5.28657       -0.48887        2.05731
O         -3.53430        2.41274       -1.17178
H          0.57998        0.69162        0.77323
H          0.71704        0.57172       -0.99334
H          2.04298        0.03783        0.03634
H          0.85404       -1.91913       -0.80223
H          0.39108       -1.47406        2.18773
H          0.39225       -3.04240        1.36061
H          1.86149       -2.06349        1.40607
H         -1.45388       -2.44847        0.00852
H         -1.07414       -2.09895       -2.26757
H         -1.02227       -0.35428       -2.14824
H         -3.55482       -1.85228       -1.31328
H         -3.16610       -1.64798       -3.00644
H         -4.57785        0.16559       -2.47518
H         -2.98811        0.76584       -2.79831
H         -1.50662        1.32062       -0.31383
H         -2.54317        1.51241        1.05616
H         -2.91639       -1.07817        0.94407
H         -1.49108       -0.40523        1.65194
H         -4.99716        1.75478        0.75292
H         -5.77164        1.24515       -0.69325
H         -6.15239       -1.29685       -1.11259
H         -6.60643       -3.59259        2.26586
H         -5.61729       -1.82308        3.72417
H         -4.85201        0.29549        2.67272
H         -4.23251        2.56419       -1.83242

--Link1--
%chk=JID_8104.chk
%mem=8GB
%nprocshared=4
# B3LYP/6-311++G(d,p) empiricaldispersion=gd3bj scf=xqc pop=npa geom=check

CID_104735746_JID_8104_Energie_neutraal

0 1

--Link1--
%chk=JID_8104.chk
%mem=8GB
%nprocshared=4
# B3LYP/6-311++G(d,p) empiricaldispersion=gd3bj scf=xqc pop=npa geom=check

CID_104735746_JID_8104_Energie_kation

1 2

--Link1--
%chk=JID_8104.chk
%mem=8GB
%nprocshared=4
# B3LYP/6-311++G(d,p) empiricaldispersion=gd3bj scf=xqc pop=npa geom=check

CID_104735746_JID_8104_Energie_anion

-1 2
