%chk=JID_3557.chk
%mem=8GB
%nprocshared=4
# opt freq B3LYP/6-31G(d) empiricaldispersion=gd3bj scf=xqc

CID_116757805_JID_3557_neutraal

0 1
C          1.05464       -0.04861       -0.06820
C          0.79777        1.16100       -0.96433
C          1.25251        0.99141       -2.44817
C          0.54584       -0.25053       -3.04025
C          0.82781        2.29664       -3.26409
C          1.40486        3.63082       -2.70871
C          2.86356        3.77629       -2.84432
C          4.05612        3.88981       -2.93039
C          5.51233        3.99976       -3.00815
N          1.07950        2.15180       -4.72358
C          0.21165        2.98689       -5.54165
O          2.68007        0.82439       -2.36222
C          3.34240        0.18134       -3.43701
H          0.42296       -0.89702       -0.34628
H          0.81887        0.20371        0.97115
H          2.10161       -0.36386       -0.10606
H         -0.26926        1.41049       -0.92116
H          1.34805        1.99033       -0.50570
H         -0.54197       -0.17242       -2.93829
H          0.76944       -0.38195       -4.10419
H          0.87595       -1.17369       -2.55260
H         -0.26329        2.36137       -3.13797
H          0.92792        4.47205       -3.22684
H          1.12098        3.76089       -1.65964
H          5.84079        4.10028       -4.04676
H          5.86696        4.87299       -2.45247
H          5.99111        3.11132       -2.58508
H          2.05216        2.40706       -4.90450
H          0.37475        4.05366       -5.36563
H          0.41891        2.79226       -6.59868
H         -0.84328        2.75076       -5.36928
H          3.07602       -0.87816       -3.48078
H          3.14826        0.65999       -4.39618
H          4.41839        0.24010       -3.24794

--Link1--
%chk=JID_3557.chk
%mem=8GB
%nprocshared=4
# B3LYP/6-311++G(d,p) empiricaldispersion=gd3bj scf=xqc pop=npa geom=check

CID_116757805_JID_3557_Energie_neutraal

0 1

--Link1--
%chk=JID_3557.chk
%mem=8GB
%nprocshared=4
# B3LYP/6-311++G(d,p) empiricaldispersion=gd3bj scf=xqc pop=npa geom=check

CID_116757805_JID_3557_Energie_kation

1 2

--Link1--
%chk=JID_3557.chk
%mem=8GB
%nprocshared=4
# B3LYP/6-311++G(d,p) empiricaldispersion=gd3bj scf=xqc pop=npa geom=check

CID_116757805_JID_3557_Energie_anion

-1 2
