%chk=JID_9378.chk
%mem=8GB
%nprocshared=4
# opt freq B3LYP/6-31G(d) empiricaldispersion=gd3bj scf=xqc

CID_65845623_JID_9378_neutraal

0 1
C          1.07046        0.04538        0.05455
C         -0.07861       -0.73610        0.67311
C          0.36163       -2.05071        1.21840
N          0.82205       -2.14768        2.46789
N          1.13631       -3.45329        2.61300
C          0.87901       -4.20085        1.48918
C          0.35597       -3.30429        0.57490
C          1.05240       -5.67966        1.37068
N          2.44794       -6.14135        1.50086
C          2.46521       -7.35618        2.33725
C          3.24132       -6.31572        0.22230
C          2.94492       -7.64977       -0.56680
C          1.54290       -7.86355       -1.11898
C          3.07593       -5.12861       -0.79243
C          3.65198       -3.77294       -0.40018
C          4.78753       -6.41848        0.60609
N          5.21133       -5.55939        1.72112
C          1.63173       -3.88817        3.90519
C          3.02367       -3.35970        4.20483
H          1.85037        0.25484        0.79460
H          0.71102        1.00057       -0.34089
H          1.53057       -0.51276       -0.76809
H         -0.53790       -0.13801        1.46950
H         -0.85475       -0.89616       -0.08491
H          0.01841       -3.52737       -0.42731
H          0.42282       -6.11628        2.15984
H          0.59285       -6.02156        0.44051
H          1.85650       -8.16237        1.91423
H          3.47618       -7.73841        2.50311
H          2.07161       -7.13685        3.33607
H          3.63879       -7.70349       -1.41789
H          3.19674       -8.52038        0.05210
H          1.20806       -7.02273       -1.73145
H          1.53281       -8.75491       -1.75606
H          0.81765       -8.03978       -0.32070
H          3.55561       -5.40673       -1.74147
H          2.02080       -4.99732       -1.05046
H          4.73916       -3.76004       -0.52427
H          3.25233       -2.99555       -1.06033
H          3.41850       -3.49372        0.62839
H          5.02586       -7.44593        0.90576
H          5.41511       -6.20915       -0.26857
H          5.31911       -4.60355        1.38825
H          4.40086       -5.50651        2.34605
H          0.91902       -3.53193        4.65805
H          1.61999       -4.97799        3.94344
H          3.02436       -2.26687        4.27718
H          3.38577       -3.76074        5.15636
H          3.73235       -3.63741        3.42030

--Link1--
%chk=JID_9378.chk
%mem=8GB
%nprocshared=4
# B3LYP/6-311++G(d,p) empiricaldispersion=gd3bj scf=xqc pop=npa geom=check

CID_65845623_JID_9378_Energie_neutraal

0 1

--Link1--
%chk=JID_9378.chk
%mem=8GB
%nprocshared=4
# B3LYP/6-311++G(d,p) empiricaldispersion=gd3bj scf=xqc pop=npa geom=check

CID_65845623_JID_9378_Energie_kation

1 2

--Link1--
%chk=JID_9378.chk
%mem=8GB
%nprocshared=4
# B3LYP/6-311++G(d,p) empiricaldispersion=gd3bj scf=xqc pop=npa geom=check

CID_65845623_JID_9378_Energie_anion

-1 2
