%chk=JID_6542.chk
%mem=8GB
%nprocshared=4
# opt freq B3LYP/6-31G(d) empiricaldispersion=gd3bj scf=xqc

CID_50972198_JID_6542_neutraal

0 1
C          1.06221       -0.07598       -0.01889
O          0.61431       -0.13234        1.32217
C          1.41664       -0.79683        2.30007
C          0.99124       -2.25683        2.46695
C          1.57998       -3.18494        1.41154
C          3.10844       -3.07014        1.30594
C          3.57855       -1.61024        1.16806
C          2.93464       -0.65191        2.16951
C          3.67929       -3.87569        0.17236
N          4.94923       -3.95695       -0.16610
C          4.93412       -4.71606       -1.30703
N          3.72242       -5.13627       -1.68022
N          2.94747       -4.60545       -0.72452
C          6.18060       -5.03909       -2.11058
C          7.29410       -4.01059       -2.15612
C          7.48423       -5.26334       -1.37240
H          0.28462        0.41984       -0.60788
H          1.21050       -1.06721       -0.44592
H          1.96761        0.53028       -0.10314
H          1.13759       -0.29272        3.23451
H          1.31617       -2.60903        3.45447
H         -0.10213       -2.33493        2.43980
H          1.10128       -2.97996        0.44850
H          1.30744       -4.21850        1.66290
H          3.53512       -3.47057        2.23605
H          3.40618       -1.25781        0.14547
H          4.66810       -1.56395        1.30117
H          3.20060        0.37925        1.91043
H          3.38105       -0.85445        3.15218
H          1.94700       -4.75828       -0.76370
H          6.00508       -5.62747       -3.00352
H          7.83583       -3.89929       -3.08746
H          7.16372       -3.08402       -1.60720
H          7.48013       -5.19290       -0.29015
H          8.15682       -6.01656       -1.76440

--Link1--
%chk=JID_6542.chk
%mem=8GB
%nprocshared=4
# B3LYP/6-311++G(d,p) empiricaldispersion=gd3bj scf=xqc pop=npa geom=check

CID_50972198_JID_6542_Energie_neutraal

0 1

--Link1--
%chk=JID_6542.chk
%mem=8GB
%nprocshared=4
# B3LYP/6-311++G(d,p) empiricaldispersion=gd3bj scf=xqc pop=npa geom=check

CID_50972198_JID_6542_Energie_kation

1 2

--Link1--
%chk=JID_6542.chk
%mem=8GB
%nprocshared=4
# B3LYP/6-311++G(d,p) empiricaldispersion=gd3bj scf=xqc pop=npa geom=check

CID_50972198_JID_6542_Energie_anion

-1 2
