%chk=JID_10398.chk
%mem=8GB
%nprocshared=4
# opt freq B3LYP/6-31G(d) empiricaldispersion=gd3bj scf=xqc

CID_147304814_JID_10398_neutraal

0 1
C          0.93974       -0.03128       -0.07342
C          0.79331       -0.77409        1.24226
C          1.14853        0.12097        2.42076
N          0.30768        0.78680        3.15851
C         -1.08224        0.69798        2.93100
C         -1.76199        1.68424        2.19637
C         -3.16365        1.55267        1.99814
C         -3.94465        2.47530        1.26019
C         -5.31805        2.29723        1.09547
C         -5.93740        1.19598        1.66586
C         -5.17859        0.28164        2.39797
C         -3.81038        0.43582        2.57656
N         -3.16849       -0.48926        3.30271
C         -1.84357       -0.35178        3.48323
N         -1.25911       -1.31317        4.31673
C         -1.02075        2.87647        1.64616
C          2.63213        0.24242        2.76801
O          3.11837       -0.96969        3.33129
C          2.85463       -1.09507        4.72933
C          3.92506       -0.39479        5.54738
H          0.26522        0.82815       -0.12043
H          0.70385       -0.69453       -0.91140
H          1.95993        0.33998       -0.21168
H         -0.22085       -1.16919        1.33357
H          1.46690       -1.63817        1.25137
H         -3.48812        3.34968        0.80265
H         -5.89845        3.01838        0.52582
H         -7.00708        1.04420        1.54926
H         -5.67141       -0.57743        2.84820
H         -1.96400       -2.01554        4.51521
H         -0.40819       -1.68237        3.91479
H         -1.10926        2.90576        0.55518
H         -1.42823        3.80040        2.07014
H          0.04728        2.86491        1.88029
H          3.18704        0.42458        1.84291
H          2.80452        1.09717        3.43013
H          1.85524       -0.72703        4.98342
H          2.87664       -2.16494        4.96141
H          3.91859        0.68509        5.37257
H          3.77110       -0.57152        6.61580
H          4.92003       -0.75738        5.26911

--Link1--
%chk=JID_10398.chk
%mem=8GB
%nprocshared=4
# B3LYP/6-311++G(d,p) empiricaldispersion=gd3bj scf=xqc pop=npa geom=check

CID_147304814_JID_10398_Energie_neutraal

0 1

--Link1--
%chk=JID_10398.chk
%mem=8GB
%nprocshared=4
# B3LYP/6-311++G(d,p) empiricaldispersion=gd3bj scf=xqc pop=npa geom=check

CID_147304814_JID_10398_Energie_kation

1 2

--Link1--
%chk=JID_10398.chk
%mem=8GB
%nprocshared=4
# B3LYP/6-311++G(d,p) empiricaldispersion=gd3bj scf=xqc pop=npa geom=check

CID_147304814_JID_10398_Energie_anion

-1 2
