%chk=JID_4984.chk
%mem=8GB
%nprocshared=4
# opt freq B3LYP/6-31G(d) empiricaldispersion=gd3bj scf=xqc

CID_153288693_JID_4984_neutraal

0 1
C          1.02884        0.09050       -0.03127
C          0.48908       -0.31247       -1.41983
C          1.05324       -1.71365       -1.74580
C         -1.04765       -0.44635       -1.34714
C          0.87172        0.76101       -2.44533
C          1.70401        0.51351       -3.53783
N          2.06753        1.43387       -4.46169
C          1.57766        2.68564       -4.31142
C          0.74409        3.04910       -3.26423
C          0.39382        2.07641       -2.32787
C          1.99715        3.70782       -5.33741
N          2.42546        3.30389       -6.50293
O          2.79458        4.39130       -7.31448
N          1.93217        5.05543       -5.02913
H          0.79256       -0.67095        0.72117
H          0.59866        1.03507        0.32002
H          2.11830        0.21311       -0.05120
H          0.74466       -2.44880       -0.99282
H          0.69579       -2.07554       -2.71697
H          2.14931       -1.71400       -1.76413
H         -1.52909        0.47651       -1.00568
H         -1.46904       -0.69421       -2.32859
H         -1.34291       -1.23751       -0.64795
H          2.13314       -0.46561       -3.72942
H          0.35315        4.05647       -3.17918
H         -0.26212        2.35983       -1.50808
H          3.05066        3.93838       -8.13982
H          2.33663        5.28905       -4.12985
H          2.39651        5.56722       -5.77830

--Link1--
%chk=JID_4984.chk
%mem=8GB
%nprocshared=4
# B3LYP/6-311++G(d,p) empiricaldispersion=gd3bj scf=xqc pop=npa geom=check

CID_153288693_JID_4984_Energie_neutraal

0 1

--Link1--
%chk=JID_4984.chk
%mem=8GB
%nprocshared=4
# B3LYP/6-311++G(d,p) empiricaldispersion=gd3bj scf=xqc pop=npa geom=check

CID_153288693_JID_4984_Energie_kation

1 2

--Link1--
%chk=JID_4984.chk
%mem=8GB
%nprocshared=4
# B3LYP/6-311++G(d,p) empiricaldispersion=gd3bj scf=xqc pop=npa geom=check

CID_153288693_JID_4984_Energie_anion

-1 2
