%chk=JID_7906.chk
%mem=8GB
%nprocshared=4
# opt freq B3LYP/6-31G(d) empiricaldispersion=gd3bj scf=xqc

CID_83990397_JID_7906_neutraal

0 1
C          1.03503        0.07912        0.05013
C          0.94892        1.60257        0.07452
C          0.99030        2.21145       -1.32829
C         -0.10668        1.59975       -2.17545
O         -1.27671        1.58921       -1.80315
N          0.33635        0.94141       -3.31562
C          1.01811        1.72268       -4.34428
C          0.00344        2.25287       -5.35958
C         -0.83057        1.10858       -5.95542
C         -1.49895        0.22473       -4.88250
C         -0.44805       -0.18559       -3.82571
N         -2.64999        0.93734       -4.30178
C         -3.70870        0.03029       -3.83651
C         -3.89679        0.05790       -2.32496
C          0.73285        3.02934       -6.42216
O          0.75179        4.24426       -6.53246
O          1.46070        2.26378       -7.25625
H          1.91799       -0.25549       -0.50376
H          0.14796       -0.37515       -0.40097
H          1.11342       -0.30452        1.07266
H          0.02618        1.89830        0.58770
H          1.78354        2.00319        0.66140
H          0.83749        3.29468       -1.28574
H          1.97708        2.02596       -1.76514
H          1.76038        1.06925       -4.81837
H          1.56074        2.56162       -3.89512
H         -0.67913        2.95410       -4.86158
H         -1.58333        1.51160       -6.64530
H         -0.18612        0.46261       -6.56736
H         -1.85092       -0.67784       -5.39788
H         -0.91610       -0.71246       -2.98646
H          0.26763       -0.88343       -4.27802
H         -2.32303        1.48729       -3.49468
H         -4.64554        0.35358       -4.30312
H         -3.54711       -1.00682       -4.15238
H         -4.08828        1.07418       -1.96485
H         -4.75277       -0.56290       -2.04109
H         -3.01825       -0.33711       -1.80592
H          1.86885        2.90711       -7.87491

--Link1--
%chk=JID_7906.chk
%mem=8GB
%nprocshared=4
# B3LYP/6-311++G(d,p) empiricaldispersion=gd3bj scf=xqc pop=npa geom=check

CID_83990397_JID_7906_Energie_neutraal

0 1

--Link1--
%chk=JID_7906.chk
%mem=8GB
%nprocshared=4
# B3LYP/6-311++G(d,p) empiricaldispersion=gd3bj scf=xqc pop=npa geom=check

CID_83990397_JID_7906_Energie_kation

1 2

--Link1--
%chk=JID_7906.chk
%mem=8GB
%nprocshared=4
# B3LYP/6-311++G(d,p) empiricaldispersion=gd3bj scf=xqc pop=npa geom=check

CID_83990397_JID_7906_Energie_anion

-1 2
