%chk=JID_9231.chk
%mem=8GB
%nprocshared=4
# opt freq B3LYP/6-31G(d) empiricaldispersion=gd3bj scf=xqc

CID_61524252_JID_9231_neutraal

0 1
C          2.59700       -0.05700       -0.16900
C          1.64034        0.46429        0.90444
C          0.33419        1.02042        0.34726
C         -0.65704       -0.04717        0.03390
N         -1.94355        0.00389        0.32153
N         -2.51572       -1.19005       -0.04294
C         -1.57192       -1.93503       -0.56253
N         -0.38316       -1.25534       -0.56488
C          0.89827       -1.77178       -0.99733
C          1.94375       -0.72974       -1.37410
S         -1.74264       -3.57825       -1.06604
C         -2.04393       -4.34307        0.55680
C         -1.72249       -5.83922        0.55904
C         -0.26511       -6.21800        0.25855
C          0.74381       -5.57290        1.20838
C          2.12602       -6.17963        1.01685
N          2.96853       -5.81652        0.09071
O          2.46730       -4.78801       -0.71109
N          2.48782       -7.19869        1.85641
H          3.30216       -0.75304        0.30237
H          3.20319        0.77966       -0.53922
H          1.43341       -0.33412        1.62898
H          2.15897        1.25382        1.46258
H          0.51193        1.64462       -0.53561
H         -0.10960        1.67682        1.10658
H          0.71534       -2.38670       -1.88541
H          1.26669       -2.42090       -0.19652
H          1.50573        0.02567       -2.03805
H          2.73694       -1.21993       -1.95255
H         -1.45308       -3.83558        1.32681
H         -3.09925       -4.19714        0.81145
H         -1.98517       -6.23936        1.54676
H         -2.37403       -6.35503       -0.15780
H         -0.17836       -7.31019        0.32577
H         -0.01291       -5.96830       -0.77842
H          0.79860       -4.49055        1.06005
H          0.43539       -5.73736        2.24793
H          3.18359       -4.67820       -1.36413
H          1.74298       -7.77542        2.22791
H          3.28424       -7.72673        1.51496

--Link1--
%chk=JID_9231.chk
%mem=8GB
%nprocshared=4
# B3LYP/6-311++G(d,p) empiricaldispersion=gd3bj scf=xqc pop=npa geom=check

CID_61524252_JID_9231_Energie_neutraal

0 1

--Link1--
%chk=JID_9231.chk
%mem=8GB
%nprocshared=4
# B3LYP/6-311++G(d,p) empiricaldispersion=gd3bj scf=xqc pop=npa geom=check

CID_61524252_JID_9231_Energie_kation

1 2

--Link1--
%chk=JID_9231.chk
%mem=8GB
%nprocshared=4
# B3LYP/6-311++G(d,p) empiricaldispersion=gd3bj scf=xqc pop=npa geom=check

CID_61524252_JID_9231_Energie_anion

-1 2
