%chk=JID_10959.chk
%mem=8GB
%nprocshared=4
# opt freq B3LYP/6-31G(d) empiricaldispersion=gd3bj scf=xqc

CID_120190720_JID_10959_neutraal

0 1
C         -2.26200       -0.00200       -0.04300
C         -1.03389        0.57970       -0.64780
C         -0.64125        1.85768       -0.79489
C          0.77871        1.93013       -1.28726
C          1.04197        0.52346       -1.80576
C          0.04746       -0.37218       -1.08009
C         -1.24987        3.16179       -0.43750
O         -0.57998        3.98060        0.19317
N         -2.46434        3.54330       -0.90311
C         -3.60269        2.77616       -1.39098
C         -4.68459        2.71550       -0.29831
C         -5.42664        4.00982       -0.09516
O         -6.62992        4.11818        0.06483
O         -4.62738        5.08968        0.01723
C         -4.16885        3.25440       -2.72077
C         -3.84234        4.49059       -3.29516
C         -4.42891        4.89312       -4.49875
C         -5.34566        4.06728       -5.14624
C         -5.67334        2.83219       -4.59710
C         -5.08747        2.42816       -3.39731
H         -2.91185       -0.42531       -0.81438
H         -1.99662       -0.80453        0.65388
H         -2.81916        0.73562        0.53564
H          0.90909        2.67051       -2.08258
H          1.45583        2.17582       -0.46063
H          0.86018        0.48418       -2.88710
H          2.07772        0.20980       -1.63847
H          0.50697       -0.84406       -0.20415
H         -0.33178       -1.15390       -1.74518
H         -2.69595        4.48076       -0.58676
H         -3.24899        1.76422       -1.58476
H         -5.42976        1.95344       -0.55524
H         -4.25609        2.43701        0.67086
H         -5.25220        5.82588        0.19523
H         -3.13220        5.15981       -2.81543
H         -4.17041        5.85646       -4.93114
H         -5.80328        4.38584       -6.07907
H         -6.38699        2.18393       -5.09916
H         -5.36062        1.45712       -2.98794

--Link1--
%chk=JID_10959.chk
%mem=8GB
%nprocshared=4
# B3LYP/6-311++G(d,p) empiricaldispersion=gd3bj scf=xqc pop=npa geom=check

CID_120190720_JID_10959_Energie_neutraal

0 1

--Link1--
%chk=JID_10959.chk
%mem=8GB
%nprocshared=4
# B3LYP/6-311++G(d,p) empiricaldispersion=gd3bj scf=xqc pop=npa geom=check

CID_120190720_JID_10959_Energie_kation

1 2

--Link1--
%chk=JID_10959.chk
%mem=8GB
%nprocshared=4
# B3LYP/6-311++G(d,p) empiricaldispersion=gd3bj scf=xqc pop=npa geom=check

CID_120190720_JID_10959_Energie_anion

-1 2
