%chk=JID_10928.chk
%mem=8GB
%nprocshared=4
# opt freq B3LYP/6-31G(d) empiricaldispersion=gd3bj scf=xqc

CID_104511396_JID_10928_neutraal

0 1
C          1.01091       -0.05693        0.08149
C         -0.38995        0.38889       -0.30328
C         -0.47146        1.77799       -0.94669
C         -0.09983        1.94192       -2.43369
C         -0.82432        0.97245       -3.37485
C          0.20755       -0.08379       -3.68422
O         -0.01079       -1.13131       -4.27023
N          1.43551        0.37382       -3.24056
C          1.37366        1.72770       -2.75426
C          2.69518       -0.31526       -3.50353
C          3.21294       -0.19294       -4.96266
C          3.54411        1.23152       -5.38063
C          2.96471        1.76678       -6.54186
C          3.24936        3.07478       -6.96947
C          4.14117        3.86659       -6.22135
C          4.72736        3.33079       -5.06610
C          4.43798        2.02882       -4.65341
C          4.48112        5.27172       -6.63683
C          2.60746        3.59159       -8.22831
N          4.39274       -1.05094       -5.17299
H          1.60225       -0.35630       -0.78294
H          0.95361       -0.92704        0.74429
H          1.54792        0.73374        0.61462
H         -0.86593       -0.37163       -0.92970
H         -0.97891        0.42784        0.62270
H         -1.51440        2.10967       -0.84679
H          0.12025        2.48643       -0.35257
H         -0.37186        2.97272       -2.69670
H         -1.09028        1.46938       -4.31384
H         -1.71885        0.52943       -2.93057
H          1.68587        2.40028       -3.55851
H          2.03294        1.86403       -1.89274
H          3.43421        0.03373       -2.77304
H          2.51553       -1.37775       -3.29307
H          2.42294       -0.57734       -5.61996
H          2.27798        1.15277       -7.12389
H          5.42280        3.92599       -4.47774
H          4.91862        1.64657       -3.75632
H          4.92997        5.27572       -7.63511
H          3.58184        5.89572       -6.63720
H          5.20076        5.73115       -5.95082
H          3.37102        3.79427       -8.98599
H          1.90614        2.86404       -8.65059
H          2.04379        4.50686       -8.02245
H          4.65965       -0.98360       -6.15515
H          5.18027       -0.67705       -4.64782

--Link1--
%chk=JID_10928.chk
%mem=8GB
%nprocshared=4
# B3LYP/6-311++G(d,p) empiricaldispersion=gd3bj scf=xqc pop=npa geom=check

CID_104511396_JID_10928_Energie_neutraal

0 1

--Link1--
%chk=JID_10928.chk
%mem=8GB
%nprocshared=4
# B3LYP/6-311++G(d,p) empiricaldispersion=gd3bj scf=xqc pop=npa geom=check

CID_104511396_JID_10928_Energie_kation

1 2

--Link1--
%chk=JID_10928.chk
%mem=8GB
%nprocshared=4
# B3LYP/6-311++G(d,p) empiricaldispersion=gd3bj scf=xqc pop=npa geom=check

CID_104511396_JID_10928_Energie_anion

-1 2
