%chk=JID_8961.chk
%mem=8GB
%nprocshared=4
# opt freq B3LYP/6-31G(d) empiricaldispersion=gd3bj scf=xqc

CID_64850913_JID_8961_neutraal

0 1
C          1.07978        0.01647       -0.05799
C          1.40220        1.04052       -1.12746
O          1.24874        0.44719       -2.41368
C          2.45588        0.01190       -3.07687
C          2.23606       -0.75627       -4.40421
C          3.49658       -0.05989       -4.95163
C          3.24914        1.08573       -3.90918
C          4.54417        1.54858       -3.23853
C          2.40866        2.29290       -4.34056
N          3.37513        0.34221       -6.32162
C          3.58273       -0.48442       -7.44895
C          3.24600        0.00634       -8.71735
C          3.48973       -0.74651       -9.87114
C          4.10726       -1.99380       -9.77979
C          4.46458       -2.48337       -8.52240
C          4.21726       -1.72723       -7.36968
S          4.40178       -2.93536      -11.26367
C          6.21176       -3.01294      -11.21540
H          0.06624       -0.37543       -0.19255
H          1.15854        0.45720        0.93972
H          1.76228       -0.83730       -0.12081
H          0.70340        1.88026       -1.06346
H          2.41480        1.43533       -0.99574
H          3.08872       -0.56782       -2.38966
H          1.29807       -0.50547       -4.91388
H          2.30689       -1.84523       -4.32609
H          4.42354       -0.61477       -4.75981
H          4.33358        2.19550       -2.38050
H          5.13819        0.70249       -2.87608
H          5.16493        2.11294       -3.94286
H          1.45967        1.99128       -4.79622
H          2.17199        2.93014       -3.48143
H          2.95119        2.90700       -5.06756
H          2.60566        0.98564       -6.49394
H          2.78718        0.98628       -8.82159
H          3.20195       -0.34278      -10.83880
H          4.93465       -3.45801       -8.42112
H          4.52236       -2.13627       -6.41178
H          6.63748       -2.00669      -11.16873
H          6.55452       -3.59356      -10.35502
H          6.57248       -3.50015      -12.12530

--Link1--
%chk=JID_8961.chk
%mem=8GB
%nprocshared=4
# B3LYP/6-311++G(d,p) empiricaldispersion=gd3bj scf=xqc pop=npa geom=check

CID_64850913_JID_8961_Energie_neutraal

0 1

--Link1--
%chk=JID_8961.chk
%mem=8GB
%nprocshared=4
# B3LYP/6-311++G(d,p) empiricaldispersion=gd3bj scf=xqc pop=npa geom=check

CID_64850913_JID_8961_Energie_kation

1 2

--Link1--
%chk=JID_8961.chk
%mem=8GB
%nprocshared=4
# B3LYP/6-311++G(d,p) empiricaldispersion=gd3bj scf=xqc pop=npa geom=check

CID_64850913_JID_8961_Energie_anion

-1 2
