%chk=JID_7689.chk
%mem=8GB
%nprocshared=4
# opt freq B3LYP/6-31G(d) empiricaldispersion=gd3bj scf=xqc

CID_103461419_JID_7689_neutraal

0 1
C          0.95997        0.09131       -0.00769
C          0.82097       -1.29993        0.58819
C          1.26054       -1.38176        2.05149
C          0.47138       -0.50608        3.03073
C         -1.04172       -0.74527        3.06546
C         -1.47841       -2.18629        3.34674
C         -0.94957       -2.79236        4.64954
C         -1.35823       -2.06102        5.93112
C         -2.86734       -1.93254        6.17578
C         -3.67471       -3.23657        6.12095
N         -3.18185       -4.21658        7.08068
C         -3.98995       -5.43361        7.16946
C         -3.54047       -6.66284        6.31928
C         -2.08194       -7.04728        6.65650
C         -4.43452       -7.85896        6.71830
C         -3.63074       -6.43347        4.78742
C         -5.01871       -6.11121        4.24549
H          0.27663        0.80136        0.46723
H          0.72294        0.06769       -1.07623
H          1.98215        0.46654        0.10374
H         -0.21300       -1.64358        0.47744
H          1.44043       -1.99129        0.00402
H          1.20738       -2.42843        2.37291
H          2.31958       -1.10183        2.11854
H          0.88393       -0.65502        4.03589
H          0.64926        0.55050        2.79667
H         -1.48001       -0.07983        3.81893
H         -1.47845       -0.43268        2.10926
H         -2.57410       -2.22252        3.34358
H         -1.16289       -2.82847        2.51589
H         -1.28084       -3.83538        4.70496
H          0.14506       -2.83955        4.61345
H         -0.90021       -2.57977        6.78243
H         -0.92054       -1.05558        5.93414
H         -3.01434       -1.46400        7.15779
H         -3.29177       -1.23345        5.44482
H         -4.71915       -2.99053        6.34737
H         -3.65118       -3.62965        5.10248
H         -2.20673       -4.43970        6.90236
H         -3.94576       -5.73439        8.22506
H         -5.04917       -5.20893        6.99281
H         -1.94217       -7.16594        7.73674
H         -1.80591       -7.99604        6.18144
H         -1.36934       -6.29404        6.30448
H         -5.49786       -7.62930        6.59362
H         -4.20739       -8.74380        6.11297
H         -4.28262       -8.13067        7.76943
H         -2.94093       -5.63677        4.48876
H         -3.27492       -7.33412        4.26879
H         -5.44772       -5.22167        4.71291
H         -4.95977       -5.92217        3.16836
H         -5.71004       -6.94607        4.39173

--Link1--
%chk=JID_7689.chk
%mem=8GB
%nprocshared=4
# B3LYP/6-311++G(d,p) empiricaldispersion=gd3bj scf=xqc pop=npa geom=check

CID_103461419_JID_7689_Energie_neutraal

0 1

--Link1--
%chk=JID_7689.chk
%mem=8GB
%nprocshared=4
# B3LYP/6-311++G(d,p) empiricaldispersion=gd3bj scf=xqc pop=npa geom=check

CID_103461419_JID_7689_Energie_kation

1 2

--Link1--
%chk=JID_7689.chk
%mem=8GB
%nprocshared=4
# B3LYP/6-311++G(d,p) empiricaldispersion=gd3bj scf=xqc pop=npa geom=check

CID_103461419_JID_7689_Energie_anion

-1 2
