%chk=JID_10806.chk
%mem=8GB
%nprocshared=4
# opt freq B3LYP/6-31G(d) empiricaldispersion=gd3bj scf=xqc

CID_12262979_JID_10806_neutraal

0 1
C          2.30100        0.68500       -0.05900
C          2.37124       -0.69140        0.11264
C          1.19745       -1.44159        0.21255
C         -0.07902       -0.83362        0.14303
C         -0.13287        0.57242       -0.03094
C          1.05765        1.31194       -0.12984
C         -1.37620        1.22061       -0.10304
C         -2.56630        0.50259       -0.00626
C         -2.52925       -0.87745        0.16343
C         -1.30165       -1.54822        0.23796
C         -1.33376       -2.97352        0.41112
C         -1.36496       -4.16563        0.55561
C         -1.40013       -5.56845        0.72533
C         -2.31570       -6.51649        0.32561
C         -1.81710       -7.76426        0.78483
C         -0.63533       -7.47098        1.42687
O         -0.36522       -6.13729        1.39950
N          0.31664       -8.30300        2.09130
O          0.05730       -9.51404        2.11890
O          1.31619       -7.76454        2.58260
H          3.21216        1.27223       -0.13636
H          3.33735       -1.18613        0.17089
H          1.29022       -2.51730        0.34908
H          1.02504        2.39134       -0.26313
H         -1.42608        2.29969       -0.23538
H         -3.52037        1.02006       -0.06286
H         -3.46347       -1.42936        0.23840
H         -3.22727       -6.33149       -0.22651
H         -2.25838       -8.74449        0.66451

--Link1--
%chk=JID_10806.chk
%mem=8GB
%nprocshared=4
# B3LYP/6-311++G(d,p) empiricaldispersion=gd3bj scf=xqc pop=npa geom=check

CID_12262979_JID_10806_Energie_neutraal

0 1

--Link1--
%chk=JID_10806.chk
%mem=8GB
%nprocshared=4
# B3LYP/6-311++G(d,p) empiricaldispersion=gd3bj scf=xqc pop=npa geom=check

CID_12262979_JID_10806_Energie_kation

1 2

--Link1--
%chk=JID_10806.chk
%mem=8GB
%nprocshared=4
# B3LYP/6-311++G(d,p) empiricaldispersion=gd3bj scf=xqc pop=npa geom=check

CID_12262979_JID_10806_Energie_anion

-1 2
