%chk=JID_5410.chk
%mem=8GB
%nprocshared=4
# opt freq B3LYP/6-31G(d) empiricaldispersion=gd3bj scf=xqc

CID_103250855_JID_5410_neutraal

0 1
C          1.29300       -1.21200        0.27900
C         -0.04646       -1.74794       -0.20654
C         -1.16455       -0.73632       -0.11017
O         -2.34081       -1.06535        0.01399
N         -0.83350        0.57651       -0.28963
C          0.49439        1.11463       -0.08612
C          1.62268        0.12004       -0.40981
N          2.95421        0.54065        0.04069
C          3.52435        1.67574       -0.67851
C          3.32444        3.04307       -0.00914
C          3.84538        3.17849        1.42872
C          5.33674        2.90617        1.59936
C          6.17254        3.93859        0.89627
O          6.19235        5.13423        1.13310
O          6.92393        3.41893       -0.09099
H          1.25740       -1.07588        1.36837
H          2.07227       -1.95619        0.07276
H         -0.32156       -2.62453        0.39025
H          0.02682       -2.06123       -1.25430
H         -1.62576        1.20242       -0.20029
H          0.54622        1.42914        0.96310
H          0.56820        2.00865       -0.71217
H          1.64625       -0.06200       -1.49257
H          2.97831        0.67606        1.04865
H          4.59974        1.49131       -0.77932
H          3.14482        1.71764       -1.70700
H          3.81138        3.80086       -0.63593
H          2.26078        3.30285       -0.00840
H          3.62407        4.19728        1.77227
H          3.28312        2.51021        2.09056
H          5.60604        2.94347        2.66136
H          5.60276        1.90269        1.25228
H          7.40791        4.18984       -0.45531

--Link1--
%chk=JID_5410.chk
%mem=8GB
%nprocshared=4
# B3LYP/6-311++G(d,p) empiricaldispersion=gd3bj scf=xqc pop=npa geom=check

CID_103250855_JID_5410_Energie_neutraal

0 1

--Link1--
%chk=JID_5410.chk
%mem=8GB
%nprocshared=4
# B3LYP/6-311++G(d,p) empiricaldispersion=gd3bj scf=xqc pop=npa geom=check

CID_103250855_JID_5410_Energie_kation

1 2

--Link1--
%chk=JID_5410.chk
%mem=8GB
%nprocshared=4
# B3LYP/6-311++G(d,p) empiricaldispersion=gd3bj scf=xqc pop=npa geom=check

CID_103250855_JID_5410_Energie_anion

-1 2
