%chk=JID_3477.chk
%mem=8GB
%nprocshared=4
# opt freq B3LYP/6-31G(d) empiricaldispersion=gd3bj scf=xqc

CID_130859473_JID_3477_neutraal

0 1
C          0.92278        0.00492       -0.06334
C          0.58606       -0.23074       -1.52808
C          1.19600       -1.52226       -2.10967
C          0.69032       -2.82135       -1.41268
C         -0.77336       -3.15507       -1.67780
O          1.47127       -3.96652       -1.77157
N          0.91057       -1.52021       -3.55228
C          1.59331       -2.27637       -4.45077
N          2.56940       -3.04552       -4.12441
C          3.22450       -3.79950       -5.20006
C          2.30601       -4.05345       -6.38500
C          1.71556       -2.72879       -6.82731
N          1.05985       -2.11820       -5.69116
H          0.43073       -0.72472        0.58579
H          0.58062        0.99864        0.24374
H          2.00264       -0.04798        0.10654
H         -0.50284       -0.22318       -1.65612
H          0.96161        0.62560       -2.10409
H          2.28504       -1.46534       -1.97978
H          0.82459       -2.71944       -0.33155
H         -0.94607       -3.38726       -2.73387
H         -1.06040       -4.05281       -1.11855
H         -1.43880       -2.34109       -1.37869
H          1.92143       -3.75934       -2.62263
H         -0.07393       -1.43856       -3.77527
H          3.56104       -4.76028       -4.79556
H          4.12081       -3.25411       -5.51814
H          1.50380       -4.74147       -6.08966
H          2.85948       -4.52280       -7.20497
H          2.49905       -2.06168       -7.20470
H          0.99007       -2.88247       -7.63228
H          0.72001       -1.18049       -5.86703

--Link1--
%chk=JID_3477.chk
%mem=8GB
%nprocshared=4
# B3LYP/6-311++G(d,p) empiricaldispersion=gd3bj scf=xqc pop=npa geom=check

CID_130859473_JID_3477_Energie_neutraal

0 1

--Link1--
%chk=JID_3477.chk
%mem=8GB
%nprocshared=4
# B3LYP/6-311++G(d,p) empiricaldispersion=gd3bj scf=xqc pop=npa geom=check

CID_130859473_JID_3477_Energie_kation

1 2

--Link1--
%chk=JID_3477.chk
%mem=8GB
%nprocshared=4
# B3LYP/6-311++G(d,p) empiricaldispersion=gd3bj scf=xqc pop=npa geom=check

CID_130859473_JID_3477_Energie_anion

-1 2
