%chk=JID_9277.chk
%mem=8GB
%nprocshared=4
# opt freq B3LYP/6-31G(d) empiricaldispersion=gd3bj scf=xqc

CID_136746836_JID_9277_neutraal

0 1
C         -1.43100        0.32400       -0.23100
C         -0.84925       -0.98466        0.29969
C          0.59033       -1.21877       -0.15839
C          1.47501       -0.00726        0.16429
C          0.92039        1.28428       -0.48431
C         -0.51244        1.51528        0.03840
C          0.97397        1.27880       -2.02351
O          0.54697        2.53455       -2.54462
N          2.85643       -0.26360       -0.23675
C          3.88604       -0.62355        0.61991
C          3.69315       -1.42615        1.68029
C          4.82408       -1.74135        2.56134
O          4.69417       -2.46381        3.54265
N          6.00548       -1.16940        2.21630
C          6.10253       -0.38028        1.11352
N          5.12247       -0.10546        0.32257
C          7.43887        0.18068        0.82605
C          7.58914        1.61509        0.37547
C          8.03346        1.21801        1.75123
H         -2.40627        0.50322        0.23638
H         -1.61639        0.23147       -1.30725
H         -0.87646       -0.96873        1.39651
H         -1.47882       -1.82338       -0.01859
H          0.60788       -1.43507       -1.23342
H          0.97735       -2.11861        0.33383
H          1.44974        0.15226        1.25166
H          1.52678        2.13501       -0.14325
H         -0.94714        2.42278       -0.39434
H         -0.46980        1.68821        1.12196
H          1.99666        1.12993       -2.38008
H          0.35789        0.49424       -2.47175
H         -0.42490        2.54641       -2.53130
H          3.25263        0.43971       -0.85980
H          2.74132       -1.86385        1.93830
H          6.80259       -1.35686        2.80392
H          8.12362       -0.53002        0.37256
H          8.34704        1.83196       -0.36839
H          6.69359        2.21994        0.27900
H          7.44188        1.57786        2.58607
H          9.09882        1.17774        1.94583

--Link1--
%chk=JID_9277.chk
%mem=8GB
%nprocshared=4
# B3LYP/6-311++G(d,p) empiricaldispersion=gd3bj scf=xqc pop=npa geom=check

CID_136746836_JID_9277_Energie_neutraal

0 1

--Link1--
%chk=JID_9277.chk
%mem=8GB
%nprocshared=4
# B3LYP/6-311++G(d,p) empiricaldispersion=gd3bj scf=xqc pop=npa geom=check

CID_136746836_JID_9277_Energie_kation

1 2

--Link1--
%chk=JID_9277.chk
%mem=8GB
%nprocshared=4
# B3LYP/6-311++G(d,p) empiricaldispersion=gd3bj scf=xqc pop=npa geom=check

CID_136746836_JID_9277_Energie_anion

-1 2
