%chk=JID_8648.chk
%mem=8GB
%nprocshared=4
# opt freq B3LYP/6-31G(d) empiricaldispersion=gd3bj scf=xqc

CID_18945278_JID_8648_neutraal

0 1
C          1.34400       -0.22500        0.03600
C          0.85249        1.08013        0.02312
C         -0.52428        1.31693        0.12532
C         -1.40357        0.23113        0.24928
C         -0.91092       -1.08560        0.28940
C          0.46709       -1.30508        0.16456
N         -1.83279       -2.16831        0.41376
C         -1.60803       -3.50614        0.77732
C         -2.78910       -4.17120        0.54127
C         -3.70056       -3.17541        0.16925
N         -3.15550       -1.96113        0.14602
N         -0.45956       -4.00816        1.30506
C         -1.02289        2.72679        0.10299
O         -0.21887        3.64538       -0.04683
N         -2.38221        2.87948        0.23661
C         -2.85817        4.02268        0.59188
N         -2.19365        5.15717        0.90836
N         -4.19349        4.16642        0.74469
H          2.41195       -0.40157       -0.07012
H          1.54647        1.91224       -0.07876
H         -2.47380        0.41597        0.32987
H          0.88478       -2.30611        0.10758
H         -2.98224       -5.22450        0.67972
H         -4.75206       -3.28060       -0.06518
H          0.13279       -3.39180        1.86039
H         -0.48713       -4.94219        1.71067
H         -2.62086        6.02671        0.62891
H         -1.20846        5.11550        0.63785
H         -4.70850        3.37648        0.37127
H         -4.58933        5.05541        0.48055

--Link1--
%chk=JID_8648.chk
%mem=8GB
%nprocshared=4
# B3LYP/6-311++G(d,p) empiricaldispersion=gd3bj scf=xqc pop=npa geom=check

CID_18945278_JID_8648_Energie_neutraal

0 1

--Link1--
%chk=JID_8648.chk
%mem=8GB
%nprocshared=4
# B3LYP/6-311++G(d,p) empiricaldispersion=gd3bj scf=xqc pop=npa geom=check

CID_18945278_JID_8648_Energie_kation

1 2

--Link1--
%chk=JID_8648.chk
%mem=8GB
%nprocshared=4
# B3LYP/6-311++G(d,p) empiricaldispersion=gd3bj scf=xqc pop=npa geom=check

CID_18945278_JID_8648_Energie_anion

-1 2
