%chk=JID_5203.chk
%mem=8GB
%nprocshared=4
# opt freq B3LYP/6-31G(d) empiricaldispersion=gd3bj scf=xqc

CID_81019919_JID_5203_neutraal

0 1
C          1.01802       -0.07854       -0.05922
C          1.26660        1.39741       -0.31358
O          2.62921        1.69244       -0.59879
C          3.56217        1.47808        0.45810
C          3.48096        2.52894        1.56846
C          2.66275        2.13746        2.81011
C          3.07356        0.83273        3.52450
C          4.57158        0.80182        3.85061
C          2.27634        0.61376        4.83266
C          0.74517        0.60681        4.70973
N          0.27988       -0.36578        3.72124
C         -1.15653       -0.64585        3.82364
C         -2.09473        0.55533        3.58825
C         -1.88527        1.19524        2.21578
C         -3.55217        0.10767        3.73187
H         -0.05487       -0.28703       -0.02070
H          1.45647       -0.40156        0.88810
H          1.46780       -0.68810       -0.84946
H          0.69660        1.69426       -1.20082
H          0.90174        2.01933        0.50594
H          3.51935        0.44818        0.81846
H          4.54625        1.58177       -0.01439
H          4.50011        2.76282        1.89935
H          3.06918        3.46131        1.16287
H          2.73207        2.96757        3.52573
H          1.60831        2.07553        2.52936
H          2.86618       -0.01606        2.86366
H          4.86383        1.66918        4.45206
H          4.82918       -0.10214        4.41326
H          5.17912        0.79514        2.94063
H          2.58977       -0.34121        5.27625
H          2.55335        1.39057        5.55759
H          0.33565        0.36734        5.69897
H          0.39782        1.61173        4.44874
H          0.78704       -1.24205        3.84902
H         -1.38799       -1.42196        3.08313
H         -1.36660       -1.09062        4.80480
H         -1.91105        1.31709        4.35557
H         -2.04046        0.46922        1.41090
H         -2.58638        2.02273        2.06249
H         -0.87518        1.60237        2.12007
H         -3.73127       -0.32177        4.72322
H         -4.23365        0.95605        3.60807
H         -3.81247       -0.64766        2.98241

--Link1--
%chk=JID_5203.chk
%mem=8GB
%nprocshared=4
# B3LYP/6-311++G(d,p) empiricaldispersion=gd3bj scf=xqc pop=npa geom=check

CID_81019919_JID_5203_Energie_neutraal

0 1

--Link1--
%chk=JID_5203.chk
%mem=8GB
%nprocshared=4
# B3LYP/6-311++G(d,p) empiricaldispersion=gd3bj scf=xqc pop=npa geom=check

CID_81019919_JID_5203_Energie_kation

1 2

--Link1--
%chk=JID_5203.chk
%mem=8GB
%nprocshared=4
# B3LYP/6-311++G(d,p) empiricaldispersion=gd3bj scf=xqc pop=npa geom=check

CID_81019919_JID_5203_Energie_anion

-1 2
