%chk=JID_6167.chk
%mem=8GB
%nprocshared=4
# opt freq B3LYP/6-31G(d) empiricaldispersion=gd3bj scf=xqc

CID_104759281_JID_6167_neutraal

0 1
C          1.01202        0.07452       -0.06559
C          0.10170       -0.42021        1.05346
C          0.81226       -0.50895        2.39899
O         -1.15016        0.25338        1.17199
C         -1.22493        1.66245        0.96641
C         -0.80067        2.50777        2.17994
N          0.53457        3.10083        1.99655
C          0.92241        3.97977        3.11743
C          2.45472        3.90958        3.24963
C          3.06947        4.83090        4.30410
C          3.08633        6.29391        3.86212
C          1.82120        7.10983        4.21378
C          0.50233        6.31382        4.07832
C          0.39331        5.40154        2.85318
C          1.77717        8.34867        3.29312
C          1.92423        7.61551        5.66935
H          1.41351        1.07033        0.13777
H          0.46360        0.12986       -1.01182
H          1.86221       -0.60233       -0.20003
H         -0.17318       -1.45018        0.79306
H          1.18408        0.45835        2.73898
H          0.12481       -0.87264        3.17027
H          1.66542       -1.19295        2.34435
H         -0.72787        1.96628        0.03917
H         -2.29004        1.86243        0.79611
H         -1.53044        3.31712        2.28881
H         -0.83024        1.90129        3.09201
H          1.21124        2.34760        1.90174
H          0.49700        3.59277        4.05282
H          2.73048        2.87853        3.51200
H          2.92776        4.10879        2.27833
H          4.11182        4.51453        4.44019
H          2.58048        4.70066        5.27525
H          3.27547        6.33653        2.78126
H          3.95729        6.78100        4.32160
H         -0.33077        7.02966        4.04349
H          0.32364        5.71760        4.98291
H          0.88352        5.84564        1.97897
H         -0.67334        5.34367        2.60249
H          0.93038        8.99902        3.54000
H          2.69151        8.94520        3.39124
H          1.67983        8.06355        2.24013
H          1.99049        6.78334        6.37846
H          2.81092        8.24381        5.81129
H          1.04805        8.21526        5.94147

--Link1--
%chk=JID_6167.chk
%mem=8GB
%nprocshared=4
# B3LYP/6-311++G(d,p) empiricaldispersion=gd3bj scf=xqc pop=npa geom=check

CID_104759281_JID_6167_Energie_neutraal

0 1

--Link1--
%chk=JID_6167.chk
%mem=8GB
%nprocshared=4
# B3LYP/6-311++G(d,p) empiricaldispersion=gd3bj scf=xqc pop=npa geom=check

CID_104759281_JID_6167_Energie_kation

1 2

--Link1--
%chk=JID_6167.chk
%mem=8GB
%nprocshared=4
# B3LYP/6-311++G(d,p) empiricaldispersion=gd3bj scf=xqc pop=npa geom=check

CID_104759281_JID_6167_Energie_anion

-1 2
