%chk=JID_5497.chk
%mem=8GB
%nprocshared=4
# opt freq B3LYP/6-31G(d) empiricaldispersion=gd3bj scf=xqc

CID_112704538_JID_5497_neutraal

0 1
C          0.92912       -0.05381       -0.04563
C          0.82549        0.86785        1.16001
N          1.22545        2.22128        0.79515
C          0.40052        3.35013        1.26144
C          1.25564        4.62152        1.13394
C          2.62066        4.03046        1.24025
C          2.54261        2.64805        1.04267
C          3.70105        1.89342        1.07528
C          4.92652        2.53133        1.31321
C          5.00800        3.92881        1.49906
C          3.82452        4.68358        1.46334
C          6.36604        4.57747        1.74303
C          6.62427        5.70872        0.73768
N          6.45280        5.01829        3.14127
C          7.78881        5.42921        3.53913
H          0.29844        0.30595       -0.86577
H          0.59956       -1.06320        0.21961
H          1.95463       -0.11920       -0.42083
H         -0.22074        0.86968        1.49041
H          1.41372        0.47927        1.99995
H         -0.52287        3.43186        0.67803
H          0.12062        3.19719        2.31327
H          1.03391        5.33712        1.93019
H          1.12365        5.09196        0.15414
H          3.68025        0.82174        0.91821
H          5.82957        1.92548        1.34916
H          3.83845        5.75828        1.60943
H          7.13397        3.81100        1.57298
H          5.97575        6.57399        0.91428
H          7.66152        6.05585        0.78831
H          6.44730        5.36560       -0.28835
H          5.79332        5.77704        3.30000
H          8.10938        6.34069        3.02625
H          7.79570        5.63895        4.61346
H          8.52186        4.63671        3.35771

--Link1--
%chk=JID_5497.chk
%mem=8GB
%nprocshared=4
# B3LYP/6-311++G(d,p) empiricaldispersion=gd3bj scf=xqc pop=npa geom=check

CID_112704538_JID_5497_Energie_neutraal

0 1

--Link1--
%chk=JID_5497.chk
%mem=8GB
%nprocshared=4
# B3LYP/6-311++G(d,p) empiricaldispersion=gd3bj scf=xqc pop=npa geom=check

CID_112704538_JID_5497_Energie_kation

1 2

--Link1--
%chk=JID_5497.chk
%mem=8GB
%nprocshared=4
# B3LYP/6-311++G(d,p) empiricaldispersion=gd3bj scf=xqc pop=npa geom=check

CID_112704538_JID_5497_Energie_anion

-1 2
