%chk=JID_3188.chk
%mem=8GB
%nprocshared=4
# opt freq B3LYP/6-31G(d) empiricaldispersion=gd3bj scf=xqc

CID_103986751_JID_3188_neutraal

0 1
C          1.26600       -0.09700        0.26800
C          0.52829        1.22875        0.10047
C         -0.85971        0.88193       -0.43542
C         -1.03227       -0.62076       -0.16842
C          0.38733       -1.13987       -0.40774
C         -2.09728       -1.28651       -1.05639
C         -2.21815       -2.82300       -0.91285
C         -2.77897       -3.37524        0.41880
C         -1.74232       -3.56513        1.51149
C         -1.10378       -4.89514        1.16425
O         -2.08513       -5.65252        0.44583
C         -3.23717       -4.82325        0.24711
N         -3.39522       -0.63412       -0.85839
H          1.36879       -0.32887        1.33482
H          2.27163       -0.06745       -0.16228
H          0.46008        1.74922        1.06205
H          1.05377        1.89282       -0.59414
H         -0.89770        1.09333       -1.51131
H         -1.63741        1.48181        0.04821
H         -1.29493       -0.74244        0.89014
H          0.61154       -1.17854       -1.48094
H          0.55898       -2.13625        0.00749
H         -1.81769       -1.09953       -2.10194
H         -2.88694       -3.15447       -1.72047
H         -1.24989       -3.28464       -1.14025
H         -3.61896       -2.76186        0.75690
H         -2.25642       -3.65850        2.47701
H         -1.00770       -2.76882        1.62017
H         -0.23390       -4.76611        0.51230
H         -0.79029       -5.45005        2.05322
H         -3.96994       -5.09032        1.01767
H         -3.68095       -5.03893       -0.72910
H         -4.11692       -1.12042       -1.38807
H         -3.66962       -0.67412        0.12118

--Link1--
%chk=JID_3188.chk
%mem=8GB
%nprocshared=4
# B3LYP/6-311++G(d,p) empiricaldispersion=gd3bj scf=xqc pop=npa geom=check

CID_103986751_JID_3188_Energie_neutraal

0 1

--Link1--
%chk=JID_3188.chk
%mem=8GB
%nprocshared=4
# B3LYP/6-311++G(d,p) empiricaldispersion=gd3bj scf=xqc pop=npa geom=check

CID_103986751_JID_3188_Energie_kation

1 2

--Link1--
%chk=JID_3188.chk
%mem=8GB
%nprocshared=4
# B3LYP/6-311++G(d,p) empiricaldispersion=gd3bj scf=xqc pop=npa geom=check

CID_103986751_JID_3188_Energie_anion

-1 2
