%chk=JID_3336.chk
%mem=8GB
%nprocshared=4
# opt freq B3LYP/6-31G(d) empiricaldispersion=gd3bj scf=xqc

CID_130121616_JID_3336_neutraal

0 1
C          1.53900       -1.19300        0.00700
C          0.14796       -0.71989       -0.30569
C          0.15805        0.64076        0.32717
N         -1.00885        1.35599       -0.12071
C         -2.14925        0.71251        0.54185
N         -2.20387       -0.67671        0.13712
C         -1.04510       -1.43340        0.24748
O         -1.04892       -2.61576        0.56235
S         -3.79246        1.47511        0.10822
O         -3.64070        2.96444        0.20501
O         -3.66456        1.15284       -1.46494
N          1.39758        1.18912       -0.19014
N          2.35091        0.04543       -0.10009
H          1.62211       -1.60245        1.01992
H          1.88422       -1.95523       -0.69870
H          0.02037       -0.67017       -1.39937
H          0.21339        0.61001        1.42619
H         -0.95898        2.31430        0.22722
H         -2.06933        0.76301        1.63447
H         -2.56621       -0.71406       -0.80946
H         -3.57347        2.02982       -1.91115
H          1.23549        1.45135       -1.16703
H          2.96569        0.00120       -0.91830

--Link1--
%chk=JID_3336.chk
%mem=8GB
%nprocshared=4
# B3LYP/6-311++G(d,p) empiricaldispersion=gd3bj scf=xqc pop=npa geom=check

CID_130121616_JID_3336_Energie_neutraal

0 1

--Link1--
%chk=JID_3336.chk
%mem=8GB
%nprocshared=4
# B3LYP/6-311++G(d,p) empiricaldispersion=gd3bj scf=xqc pop=npa geom=check

CID_130121616_JID_3336_Energie_kation

1 2

--Link1--
%chk=JID_3336.chk
%mem=8GB
%nprocshared=4
# B3LYP/6-311++G(d,p) empiricaldispersion=gd3bj scf=xqc pop=npa geom=check

CID_130121616_JID_3336_Energie_anion

-1 2
