%chk=JID_5946.chk
%mem=8GB
%nprocshared=4
# opt freq B3LYP/6-31G(d) empiricaldispersion=gd3bj scf=xqc

CID_123522236_JID_5946_neutraal

0 1
C          0.92015       -0.04951        0.03424
C          0.22872        0.86024       -0.98929
C          1.04660        2.15098       -1.22883
C          0.37018        3.13463       -0.32599
C         -0.87534        2.66797        0.08619
C         -1.17191        1.31012       -0.48660
C         -2.18541        1.40191       -1.62401
C         -1.68474        3.44701        0.89205
C         -1.23470        4.71757        1.27378
C          0.01686        5.22389        0.85393
C          0.82148        4.39496        0.04313
C          0.51188        6.62875        1.24742
C          1.77661        6.49903        2.12159
C          0.85247        7.44344       -0.02059
C         -0.52034        7.45533        2.04797
H          0.33285       -0.95930        0.19736
H          1.04820        0.44910        1.00088
H          1.91000       -0.35007       -0.32513
H          0.15341        0.28666       -1.92154
H          0.94512        2.48332       -2.26777
H          2.10632        2.02958       -0.98519
H         -1.54921        0.63782        0.29253
H         -2.35582        0.41468       -2.06592
H         -3.14838        1.77791       -1.26112
H         -1.84704        2.07520       -2.41980
H         -2.65743        3.09105        1.21700
H         -1.89643        5.30649        1.90303
H          1.79316        4.72984       -0.30865
H          2.59728        6.00572        1.58912
H          2.14180        7.48354        2.43680
H          1.57276        5.91387        3.02617
H         -0.01429        7.51432       -0.68838
H          1.15996        8.46415        0.23593
H          1.67427        6.99960       -0.59269
H         -1.44748        7.59924        1.48078
H         -0.77288        6.97555        3.00058
H         -0.12934        8.45194        2.28628

--Link1--
%chk=JID_5946.chk
%mem=8GB
%nprocshared=4
# B3LYP/6-311++G(d,p) empiricaldispersion=gd3bj scf=xqc pop=npa geom=check

CID_123522236_JID_5946_Energie_neutraal

0 1

--Link1--
%chk=JID_5946.chk
%mem=8GB
%nprocshared=4
# B3LYP/6-311++G(d,p) empiricaldispersion=gd3bj scf=xqc pop=npa geom=check

CID_123522236_JID_5946_Energie_kation

1 2

--Link1--
%chk=JID_5946.chk
%mem=8GB
%nprocshared=4
# B3LYP/6-311++G(d,p) empiricaldispersion=gd3bj scf=xqc pop=npa geom=check

CID_123522236_JID_5946_Energie_anion

-1 2
