%chk=JID_4166.chk
%mem=8GB
%nprocshared=4
# opt freq B3LYP/6-31G(d) empiricaldispersion=gd3bj scf=xqc

CID_139821028_JID_4166_neutraal

0 1
C          0.97515       -0.04971        0.08313
C          0.93587       -1.31719       -0.76119
C          1.30133       -2.57997        0.03254
C          0.46891       -2.80588        1.31048
C         -1.05153       -2.75258        1.03669
C         -1.55820       -3.84120        0.10470
C         -1.99283       -4.77501       -0.69476
O         -2.42944       -5.72736       -1.50781
C          0.93376       -3.97394        2.25957
C          0.43870       -5.40249        1.98234
C          1.22037       -6.12334        0.89344
C          2.69773       -6.19733        1.25713
C          3.28208       -4.81603        1.52303
C          2.45798       -3.99959        2.52471
H          0.16988       -0.01623        0.82143
H          0.85763        0.82743       -0.56193
H          1.93228        0.04534        0.60582
H         -0.05029       -1.42197       -1.22594
H          1.65158       -1.21176       -1.58578
H          1.22937       -3.44524       -0.63341
H          2.35519       -2.46795        0.30326
H          0.66078       -1.91726        1.93108
H         -1.58723       -2.85324        1.98923
H         -1.35186       -1.78289        0.62745
H         -1.68020       -6.16795       -1.94137
H          0.47635       -3.70870        3.22625
H          0.55571       -5.98125        2.91038
H         -0.63262       -5.43571        1.78188
H          1.09288       -5.62241       -0.07078
H          0.82714       -7.13964        0.77482
H          3.25442       -6.68510        0.44885
H          2.82338       -6.82243        2.14987
H          3.37291       -4.28648        0.57104
H          4.30491       -4.92329        1.90364
H          2.85530       -2.98017        2.59347
H          2.61524       -4.44644        3.51630

--Link1--
%chk=JID_4166.chk
%mem=8GB
%nprocshared=4
# B3LYP/6-311++G(d,p) empiricaldispersion=gd3bj scf=xqc pop=npa geom=check

CID_139821028_JID_4166_Energie_neutraal

0 1

--Link1--
%chk=JID_4166.chk
%mem=8GB
%nprocshared=4
# B3LYP/6-311++G(d,p) empiricaldispersion=gd3bj scf=xqc pop=npa geom=check

CID_139821028_JID_4166_Energie_kation

1 2

--Link1--
%chk=JID_4166.chk
%mem=8GB
%nprocshared=4
# B3LYP/6-311++G(d,p) empiricaldispersion=gd3bj scf=xqc pop=npa geom=check

CID_139821028_JID_4166_Energie_anion

-1 2
