%chk=JID_9686.chk
%mem=8GB
%nprocshared=4
# opt freq B3LYP/6-31G(d) empiricaldispersion=gd3bj scf=xqc

CID_62239083_JID_9686_neutraal

0 1
C          0.93649       -0.06174       -0.04642
C         -0.33354       -0.02065       -0.88143
N         -0.02570       -0.41709       -2.25346
C         -1.16154       -0.60522       -3.04583
C         -2.07039        0.42148       -3.29174
C         -3.19568        0.16903       -4.07394
C         -3.37937       -1.10248       -4.59760
C         -2.40323       -2.05544       -4.33319
N         -1.30455       -1.83397       -3.56692
C         -2.60559       -3.44343       -4.81588
O         -2.81517       -4.29987       -3.95409
N         -2.73648       -3.69801       -6.20047
C         -3.30998       -5.02608       -6.51224
C         -4.03629       -5.01217       -7.86253
C         -3.15374       -4.48658       -8.98455
C         -2.58814       -3.12143       -8.61553
C         -1.85208       -3.13200       -7.25945
C         -1.24787       -1.74245       -7.05165
C         -2.27125       -6.15435       -6.43391
H          1.36117       -1.07105       -0.02589
H          0.72572        0.24168        0.98369
H          1.69639        0.61302       -0.45468
H         -1.07375       -0.69812       -0.43791
H         -0.73796        0.99748       -0.85398
H          0.42764       -1.33267       -2.27513
H         -1.90344        1.41285       -2.88454
H         -3.91969        0.95583       -4.26390
H         -4.25238       -1.34778       -5.19155
H         -4.07369       -5.24620       -5.75418
H         -4.92052       -4.36617       -7.78146
H         -4.40183       -6.01492       -8.11264
H         -3.73867       -4.40674       -9.90785
H         -2.33591       -5.18702       -9.18782
H         -3.41171       -2.39593       -8.57636
H         -1.91129       -2.79220       -9.41314
H         -1.00032       -3.82038       -7.32995
H         -0.58362       -1.71551       -6.18483
H         -0.62844       -1.46560       -7.91338
H         -2.01686       -0.97191       -6.95343
H         -1.79191       -6.18735       -5.45046
H         -2.74824       -7.12559       -6.60365
H         -1.47624       -6.04022       -7.17653

--Link1--
%chk=JID_9686.chk
%mem=8GB
%nprocshared=4
# B3LYP/6-311++G(d,p) empiricaldispersion=gd3bj scf=xqc pop=npa geom=check

CID_62239083_JID_9686_Energie_neutraal

0 1

--Link1--
%chk=JID_9686.chk
%mem=8GB
%nprocshared=4
# B3LYP/6-311++G(d,p) empiricaldispersion=gd3bj scf=xqc pop=npa geom=check

CID_62239083_JID_9686_Energie_kation

1 2

--Link1--
%chk=JID_9686.chk
%mem=8GB
%nprocshared=4
# B3LYP/6-311++G(d,p) empiricaldispersion=gd3bj scf=xqc pop=npa geom=check

CID_62239083_JID_9686_Energie_anion

-1 2
