%chk=JID_9101.chk
%mem=8GB
%nprocshared=4
# opt freq B3LYP/6-31G(d) empiricaldispersion=gd3bj scf=xqc

CID_43240490_JID_9101_neutraal

0 1
C         -2.52700        1.72600        0.03600
C         -1.09779        1.23934       -0.08770
C         -0.84739       -0.15992       -0.16326
C          0.48304       -0.63348       -0.26941
C          1.53091        0.30151       -0.40254
C          1.29594        1.69442       -0.38084
C         -0.01804        2.16396       -0.14173
C         -0.27862        3.64643        0.01256
C          2.43629        2.66346       -0.59523
C          2.92312       -0.19969       -0.54870
O          3.27643       -0.77933       -1.56561
N          3.72247        0.03389        0.55004
C          5.08204       -0.46777        0.62612
C          5.99029        0.51831        1.34038
C          7.42470        0.08256        1.30504
O          8.38450        0.80782        1.10295
O          7.60597       -1.21215        1.62066
C          0.78138       -2.11537       -0.31205
C         -1.97927       -1.16239       -0.07891
H         -3.12195        1.36044       -0.80775
H         -2.96190        1.37567        0.97771
H         -2.62972        2.81239        0.01396
H          0.62265        4.20960        0.26954
H         -0.69264        4.05497       -0.91416
H         -0.96669        3.83457        0.84333
H          2.81663        3.01579        0.36847
H          3.26223        2.21938       -1.15892
H          2.11450        3.51989       -1.19694
H          3.27287        0.36486        1.39559
H          5.03629       -1.42102        1.16444
H          5.45812       -0.67925       -0.38123
H          5.92464        1.49763        0.85109
H          5.68883        0.65175        2.38496
H          8.57959       -1.33085        1.59201
H          0.06150       -2.69264        0.27572
H          0.76064       -2.46968       -1.34726
H          1.75634       -2.34906        0.12686
H         -1.86252       -1.93815       -0.84333
H         -1.99037       -1.62516        0.91325
H         -2.96480       -0.72625       -0.25267

--Link1--
%chk=JID_9101.chk
%mem=8GB
%nprocshared=4
# B3LYP/6-311++G(d,p) empiricaldispersion=gd3bj scf=xqc pop=npa geom=check

CID_43240490_JID_9101_Energie_neutraal

0 1

--Link1--
%chk=JID_9101.chk
%mem=8GB
%nprocshared=4
# B3LYP/6-311++G(d,p) empiricaldispersion=gd3bj scf=xqc pop=npa geom=check

CID_43240490_JID_9101_Energie_kation

1 2

--Link1--
%chk=JID_9101.chk
%mem=8GB
%nprocshared=4
# B3LYP/6-311++G(d,p) empiricaldispersion=gd3bj scf=xqc pop=npa geom=check

CID_43240490_JID_9101_Energie_anion

-1 2
