%chk=JID_8028.chk
%mem=8GB
%nprocshared=4
# opt freq B3LYP/6-31G(d) empiricaldispersion=gd3bj scf=xqc

CID_62215457_JID_8028_neutraal

0 1
C          0.91112       -0.04128       -0.01990
O          2.04130        0.19209       -0.85302
C          1.97467        1.23973       -1.72937
C          3.17184        1.68508       -2.31320
C          3.10519        2.65042       -3.33015
C          1.88538        3.20233       -3.72703
C          0.69435        2.74914       -3.17154
C          0.75365        1.80180       -2.14503
N         -0.51448        3.38223       -3.48075
N          4.47035        1.22303       -2.02504
C          5.09572        0.69865       -0.93104
O          6.22015        0.22235       -1.14444
C          4.51533        0.77104        0.49800
C          4.06868        2.18969        0.88286
C          4.13386        2.44331        2.39101
C          3.92842        1.14819        3.15982
C          4.96563        0.10679        2.74550
O          5.51167        0.35936        1.45162
H          1.20229       -0.77440        0.73865
H          0.08518       -0.47102       -0.59498
H          0.60197        0.87054        0.50199
H          4.01377        3.02034       -3.80094
H          1.87886        3.98637       -4.47960
H         -0.18359        1.48442       -1.70070
H         -1.33801        2.81367       -3.30895
H         -0.53256        3.80884       -4.40248
H          5.13884        1.29906       -2.78348
H          3.71408        0.03788        0.57830
H          3.04367        2.36221        0.54165
H          4.68468        2.94392        0.37752
H          5.11356        2.86509        2.64787
H          3.38291        3.18711        2.67889
H          3.96856        1.31440        4.24167
H          2.92405        0.76118        2.94442
H          5.80334        0.11327        3.45060
H          4.53377       -0.89998        2.76591

--Link1--
%chk=JID_8028.chk
%mem=8GB
%nprocshared=4
# B3LYP/6-311++G(d,p) empiricaldispersion=gd3bj scf=xqc pop=npa geom=check

CID_62215457_JID_8028_Energie_neutraal

0 1

--Link1--
%chk=JID_8028.chk
%mem=8GB
%nprocshared=4
# B3LYP/6-311++G(d,p) empiricaldispersion=gd3bj scf=xqc pop=npa geom=check

CID_62215457_JID_8028_Energie_kation

1 2

--Link1--
%chk=JID_8028.chk
%mem=8GB
%nprocshared=4
# B3LYP/6-311++G(d,p) empiricaldispersion=gd3bj scf=xqc pop=npa geom=check

CID_62215457_JID_8028_Energie_anion

-1 2
