%chk=JID_5075.chk
%mem=8GB
%nprocshared=4
# opt freq B3LYP/6-31G(d) empiricaldispersion=gd3bj scf=xqc

CID_15584976_JID_5075_neutraal

0 1
C          1.03977        0.06417       -0.06558
C          0.87164       -0.62143       -1.41715
C          1.87110       -0.17451       -2.46849
C          3.25990       -0.75525       -2.22717
O          3.28410       -1.76042       -1.22668
C          2.16377       -2.64417       -1.12218
O          0.88358       -2.03985       -1.31707
C          2.21120       -3.10322        0.34834
C          2.30309       -3.88505       -2.07910
C          2.04365       -3.54179       -3.56406
C          2.15915       -4.75528       -4.48578
C          1.23088       -5.87963       -4.05550
C          1.48174       -6.25855       -2.60499
C          1.36568       -5.05125       -1.67652
C          4.24564        0.32777       -1.79000
H          0.31598       -0.33385        0.65358
H          0.88226        1.14360       -0.15682
H          2.03156       -0.09220        0.36540
H         -0.13059       -0.35860       -1.77671
H          1.52645       -0.55389       -3.43984
H          1.88860        0.91685       -2.56916
H          3.66256       -1.16729       -3.15613
H          1.29816       -3.62724        0.64857
H          3.08188       -3.74133        0.53598
H          2.30840       -2.24804        1.02581
H          3.33966       -4.24349       -2.00506
H          1.04471       -3.10416       -3.68003
H          2.76167       -2.80460       -3.92262
H          3.19587       -5.11388       -4.48774
H          1.92345       -4.45798       -5.51408
H          1.38200       -6.75324       -4.69938
H          0.18749       -5.56537       -4.17996
H          2.48239       -6.69752       -2.50755
H          0.76532       -7.02862       -2.29685
H          1.60065       -5.40111       -0.66581
H          0.32488       -4.70428       -1.66407
H          5.23869       -0.10477       -1.62480
H          4.33219        1.11536       -2.54497
H          3.94117        0.78329       -0.84198

--Link1--
%chk=JID_5075.chk
%mem=8GB
%nprocshared=4
# B3LYP/6-311++G(d,p) empiricaldispersion=gd3bj scf=xqc pop=npa geom=check

CID_15584976_JID_5075_Energie_neutraal

0 1

--Link1--
%chk=JID_5075.chk
%mem=8GB
%nprocshared=4
# B3LYP/6-311++G(d,p) empiricaldispersion=gd3bj scf=xqc pop=npa geom=check

CID_15584976_JID_5075_Energie_kation

1 2

--Link1--
%chk=JID_5075.chk
%mem=8GB
%nprocshared=4
# B3LYP/6-311++G(d,p) empiricaldispersion=gd3bj scf=xqc pop=npa geom=check

CID_15584976_JID_5075_Energie_anion

-1 2
