%chk=JID_2924.chk
%mem=8GB
%nprocshared=4
# opt freq B3LYP/6-31G(d) empiricaldispersion=gd3bj scf=xqc

CID_154200451_JID_2924_neutraal

0 1
C          1.06697       -0.01482        0.07277
C          0.62165        1.28210       -0.59048
N          0.77593        1.24236       -2.05194
C         -0.06480        0.47294       -2.87519
O          0.36897       -0.11380       -3.86939
N         -1.39537        0.39580       -2.48200
C         -2.17353       -0.70019       -3.05675
C         -3.52541       -0.87168       -2.34211
N         -4.31471        0.37557       -2.28821
C         -3.50073        1.44041       -1.67031
C         -2.15024        1.64888       -2.37699
N          2.12324        1.41438       -2.51539
H          0.47808       -0.86494       -0.28674
H          0.94121        0.05265        1.15781
H          2.12086       -0.22585       -0.13514
H         -0.42212        1.46252       -0.32428
H          1.20536        2.12715       -0.20736
H         -2.32737       -0.48941       -4.12278
H         -1.59178       -1.62647       -2.98205
H         -3.35934       -1.22823       -1.31792
H         -4.11388       -1.64111       -2.85337
H         -4.53508        0.65335       -3.24542
H         -3.33247        1.19269       -0.61505
H         -4.07092        2.37544       -1.69004
H         -1.56841        2.42203       -1.86789
H         -2.31428        2.01448       -3.39958
H          2.33309        0.57610       -3.07489
H          2.09410        2.16047       -3.21458

--Link1--
%chk=JID_2924.chk
%mem=8GB
%nprocshared=4
# B3LYP/6-311++G(d,p) empiricaldispersion=gd3bj scf=xqc pop=npa geom=check

CID_154200451_JID_2924_Energie_neutraal

0 1

--Link1--
%chk=JID_2924.chk
%mem=8GB
%nprocshared=4
# B3LYP/6-311++G(d,p) empiricaldispersion=gd3bj scf=xqc pop=npa geom=check

CID_154200451_JID_2924_Energie_kation

1 2

--Link1--
%chk=JID_2924.chk
%mem=8GB
%nprocshared=4
# B3LYP/6-311++G(d,p) empiricaldispersion=gd3bj scf=xqc pop=npa geom=check

CID_154200451_JID_2924_Energie_anion

-1 2
