%chk=JID_3808.chk
%mem=8GB
%nprocshared=4
# opt freq B3LYP/6-31G(d) empiricaldispersion=gd3bj scf=xqc

CID_117227334_JID_3808_neutraal

0 1
C          0.94620       -0.06903        0.04838
C          0.03810       -1.26227        0.34739
N         -0.08267       -2.09273       -0.87615
C         -0.02775       -3.46028       -0.35838
C          0.93808       -3.33986        0.79417
O          0.66133       -2.06185        1.36832
C         -1.38753       -0.87093        0.80690
C         -1.57309        0.15773        1.94906
C         -1.63476        1.60906        1.44140
C         -1.91818        2.57870        2.58934
C         -0.93925        2.36041        3.73913
C         -0.89123        0.89293        4.16017
N         -0.58565        0.03479        3.02141
H          1.16711        0.50659        0.95235
H          0.50856        0.59667       -0.70264
H          1.92385       -0.40382       -0.32063
H          0.75467       -1.93849       -1.43639
H          0.30103       -4.18150       -1.11175
H         -1.02194       -3.75921       -0.00826
H          1.98023       -3.34602        0.45611
H          0.80015       -4.12030        1.54717
H         -1.96281       -0.51839       -0.06046
H         -1.88562       -1.79109        1.14698
H         -2.56207       -0.06536        2.37667
H         -2.42272        1.71126        0.68581
H         -0.69511        1.89889        0.96059
H         -1.85355        3.61226        2.23175
H         -2.94315        2.42683        2.94965
H          0.06211        2.68615        3.42970
H         -1.22747        2.98251        4.59393
H         -0.11477        0.76459        4.92208
H         -1.84214        0.59472        4.61785
H         -0.49475       -0.94062        3.30871

--Link1--
%chk=JID_3808.chk
%mem=8GB
%nprocshared=4
# B3LYP/6-311++G(d,p) empiricaldispersion=gd3bj scf=xqc pop=npa geom=check

CID_117227334_JID_3808_Energie_neutraal

0 1

--Link1--
%chk=JID_3808.chk
%mem=8GB
%nprocshared=4
# B3LYP/6-311++G(d,p) empiricaldispersion=gd3bj scf=xqc pop=npa geom=check

CID_117227334_JID_3808_Energie_kation

1 2

--Link1--
%chk=JID_3808.chk
%mem=8GB
%nprocshared=4
# B3LYP/6-311++G(d,p) empiricaldispersion=gd3bj scf=xqc pop=npa geom=check

CID_117227334_JID_3808_Energie_anion

-1 2
