%chk=JID_5141.chk
%mem=8GB
%nprocshared=4
# opt freq B3LYP/6-31G(d) empiricaldispersion=gd3bj scf=xqc

CID_84749654_JID_5141_neutraal

0 1
C          1.04954        0.01868       -0.08484
N          0.67368       -0.22311        1.29316
C         -0.75654       -0.02008        1.57884
C         -1.67706       -1.14096        1.13105
O         -2.34660       -1.85111        1.86645
O         -1.74861       -1.29515       -0.20670
C          1.31152       -1.32778        2.03509
C          0.97002       -2.72514        1.53920
C          1.08862       -3.23552        0.25631
S          0.59358       -4.86686        0.11956
C          0.21168       -4.94432        1.77848
C          0.45808       -3.75030        2.41716
C          2.83533       -1.07643        2.18377
S          3.46191       -0.10963        3.40615
N          3.71443       -1.61664        1.28839
H          0.71760        1.01673       -0.39445
H          0.61753       -0.69514       -0.78858
H          2.13495        0.01632       -0.21993
H         -0.89590        0.10954        2.65940
H         -1.11607        0.91459        1.13123
H         -2.33798       -2.07077       -0.31523
H          0.92225       -1.27308        3.06404
H          1.44309       -2.73669       -0.63347
H         -0.17804       -5.85636        2.21000
H          0.26829       -3.60708        3.47539
H          3.44611       -2.30509        0.59890
H          4.70569       -1.45972        1.42839

--Link1--
%chk=JID_5141.chk
%mem=8GB
%nprocshared=4
# B3LYP/6-311++G(d,p) empiricaldispersion=gd3bj scf=xqc pop=npa geom=check

CID_84749654_JID_5141_Energie_neutraal

0 1

--Link1--
%chk=JID_5141.chk
%mem=8GB
%nprocshared=4
# B3LYP/6-311++G(d,p) empiricaldispersion=gd3bj scf=xqc pop=npa geom=check

CID_84749654_JID_5141_Energie_kation

1 2

--Link1--
%chk=JID_5141.chk
%mem=8GB
%nprocshared=4
# B3LYP/6-311++G(d,p) empiricaldispersion=gd3bj scf=xqc pop=npa geom=check

CID_84749654_JID_5141_Energie_anion

-1 2
