%chk=JID_7708.chk
%mem=8GB
%nprocshared=4
# opt freq B3LYP/6-31G(d) empiricaldispersion=gd3bj scf=xqc

CID_153776731_JID_7708_neutraal

0 1
C         -2.49800        0.71200        0.27900
C         -2.48843       -0.70702       -0.26884
C         -1.20354       -1.43253        0.10675
C          0.03292       -0.65247       -0.35160
C          0.05219        0.78755        0.22858
C         -1.26082        1.50114       -0.14712
C          1.32894        1.54035       -0.25139
C          2.59904        0.80858        0.20745
C          2.55021       -0.62845       -0.16192
N          3.57229       -1.27271       -0.67559
N          4.47176       -1.79866       -1.13821
C          1.29731       -1.40128        0.01388
O          1.37470       -2.56330        0.37251
S          1.43014        3.27421        0.28673
O          2.81085        3.69844        0.33769
O          0.42755        4.06472       -0.38594
O          0.98004        3.09211        1.82542
H         -3.40023        1.23203       -0.06269
H         -2.54629        0.67918        1.37464
H         -3.35205       -1.25917        0.11847
H         -2.58929       -0.68005       -1.36072
H         -1.16985       -1.58395        1.19361
H         -1.20978       -2.43191       -0.34544
H          0.01744       -0.59750       -1.44937
H          0.09074        0.71396        1.32486
H         -1.29284        1.67403       -1.23003
H         -1.32308        2.47803        0.34007
H          1.32336        1.58888       -1.34860
H          2.70227        0.86776        1.29765
H          3.49423        1.26300       -0.23163
H          1.55253        3.66689        2.37973

--Link1--
%chk=JID_7708.chk
%mem=8GB
%nprocshared=4
# B3LYP/6-311++G(d,p) empiricaldispersion=gd3bj scf=xqc pop=npa geom=check

CID_153776731_JID_7708_Energie_neutraal

0 1

--Link1--
%chk=JID_7708.chk
%mem=8GB
%nprocshared=4
# B3LYP/6-311++G(d,p) empiricaldispersion=gd3bj scf=xqc pop=npa geom=check

CID_153776731_JID_7708_Energie_kation

1 2

--Link1--
%chk=JID_7708.chk
%mem=8GB
%nprocshared=4
# B3LYP/6-311++G(d,p) empiricaldispersion=gd3bj scf=xqc pop=npa geom=check

CID_153776731_JID_7708_Energie_anion

-1 2
