%chk=JID_8225.chk
%mem=8GB
%nprocshared=4
# opt freq B3LYP/6-31G(d) empiricaldispersion=gd3bj scf=xqc

CID_113651018_JID_8225_neutraal

0 1
C          1.34400       -0.22500        0.03600
C          0.95182        0.85484       -0.75272
C         -0.40406        1.12093       -0.95295
C         -1.38166        0.30961       -0.36210
C         -0.97561       -0.77184        0.43208
C          0.38039       -1.03774        0.62880
C         -2.84766        0.59095       -0.57339
C         -3.54937        1.18470        0.65641
C         -3.05542        2.58500        1.05077
C         -3.21683        3.62108       -0.05889
N         -2.22000        4.31701       -0.54207
N         -2.77026        5.13579       -1.47182
C         -2.27401        6.08233       -2.30867
N         -3.26683        6.58809       -3.02300
N         -4.44792        5.95365       -2.63587
C         -4.09983        5.10392       -1.71309
S         -4.85472        3.95105       -0.70929
N         -3.77071        3.03958        2.25997
H          2.39975       -0.43226        0.18909
H          1.70330        1.49007       -1.21450
H         -0.68687        1.96670       -1.57525
H         -1.71471       -1.41857        0.90017
H          0.68452       -1.88061        1.24399
H         -2.98508        1.24182       -1.44507
H         -3.33986       -0.35416       -0.83839
H         -4.62721        1.20743        0.45047
H         -3.42051        0.50587        1.51023
H         -1.99141        2.53454        1.30854
H         -1.23150        6.35573       -2.35819
H         -3.40493        3.94386        2.55969
H         -4.76251        3.17119        2.05992

--Link1--
%chk=JID_8225.chk
%mem=8GB
%nprocshared=4
# B3LYP/6-311++G(d,p) empiricaldispersion=gd3bj scf=xqc pop=npa geom=check

CID_113651018_JID_8225_Energie_neutraal

0 1

--Link1--
%chk=JID_8225.chk
%mem=8GB
%nprocshared=4
# B3LYP/6-311++G(d,p) empiricaldispersion=gd3bj scf=xqc pop=npa geom=check

CID_113651018_JID_8225_Energie_kation

1 2

--Link1--
%chk=JID_8225.chk
%mem=8GB
%nprocshared=4
# B3LYP/6-311++G(d,p) empiricaldispersion=gd3bj scf=xqc pop=npa geom=check

CID_113651018_JID_8225_Energie_anion

-1 2
