%chk=JID_9994.chk
%mem=8GB
%nprocshared=4
# opt freq B3LYP/6-31G(d) empiricaldispersion=gd3bj scf=xqc

CID_82776007_JID_9994_neutraal

0 1
C          1.05306        0.06411        0.05545
C          1.11136        0.03678       -1.45642
O          1.48201       -1.28309       -1.87869
C          2.77146       -1.47167       -2.24327
O          3.64922       -0.61865       -2.19681
C          3.01518       -2.85880       -2.78273
C          1.93241       -3.88915       -2.46111
C          0.61760       -3.78112       -3.27824
N          0.78517       -3.46856       -4.70602
C          0.36409       -2.21465       -5.14688
O         -0.09433       -1.34959       -4.40080
C          0.55437       -1.90236       -6.61300
C          0.43223       -3.13521       -7.50596
C          1.43661       -4.16864       -6.99920
C          1.29375       -4.47039       -5.52535
O          1.69628       -5.54696       -5.07892
C          0.78959       -2.74788       -8.95175
C         -1.00228       -3.69548       -7.49641
O          2.51014       -5.19836       -2.58649
H          0.35312       -0.69119        0.42803
H          0.73566        1.04653        0.41604
H          2.03229       -0.16941        0.48605
H          0.11981        0.24451       -1.87113
H          1.79159        0.80466       -1.84091
H          3.18693       -2.78692       -3.86143
H          3.95922       -3.20187       -2.33946
H          1.66442       -3.81226       -1.40031
H          0.08748       -4.74085       -3.22012
H         -0.03970       -3.04092       -2.81192
H          1.54177       -1.43473       -6.71620
H         -0.19496       -1.15445       -6.90102
H          2.46650       -3.82229       -7.15349
H          1.31884       -5.10945       -7.55082
H          0.74009       -3.61700       -9.61727
H          0.10019       -1.98920       -9.33920
H          1.80385       -2.33776       -9.01596
H         -1.32579       -4.00150       -6.49644
H         -1.71712       -2.94679       -7.85654
H         -1.08409       -4.57257       -8.14842
H          2.36442       -5.52191       -3.50246

--Link1--
%chk=JID_9994.chk
%mem=8GB
%nprocshared=4
# B3LYP/6-311++G(d,p) empiricaldispersion=gd3bj scf=xqc pop=npa geom=check

CID_82776007_JID_9994_Energie_neutraal

0 1

--Link1--
%chk=JID_9994.chk
%mem=8GB
%nprocshared=4
# B3LYP/6-311++G(d,p) empiricaldispersion=gd3bj scf=xqc pop=npa geom=check

CID_82776007_JID_9994_Energie_kation

1 2

--Link1--
%chk=JID_9994.chk
%mem=8GB
%nprocshared=4
# B3LYP/6-311++G(d,p) empiricaldispersion=gd3bj scf=xqc pop=npa geom=check

CID_82776007_JID_9994_Energie_anion

-1 2
