%chk=JID_4667.chk
%mem=8GB
%nprocshared=4
# opt freq B3LYP/6-31G(d) empiricaldispersion=gd3bj scf=xqc

CID_129736043_JID_4667_neutraal

0 1
C          2.49200        0.00400       -0.01400
C          0.98790        0.00242       -0.06857
C          0.30010       -1.20839        0.11865
C         -1.09337       -1.25388        0.07326
C         -1.81896       -0.09169       -0.16576
C         -1.15074        1.11775       -0.35794
C          0.25125        1.18034       -0.30566
C          0.92437        2.46749       -0.53724
C          0.66999        3.55426        0.20989
N          1.26043        4.81062        0.07316
C          2.21075        5.22982       -0.83439
C          2.45767        6.55226       -0.55265
N          1.69558        6.97435        0.49848
C          0.99440        5.92055        0.85126
H          2.88432       -0.97684        0.27537
H          2.90676        0.25109       -0.99641
H          2.84829        0.72695        0.72701
H          0.84937       -2.12951        0.30265
H         -1.61101       -2.19830        0.22058
H         -2.90434       -0.12617       -0.20897
H         -1.73545        2.01248       -0.56053
H          1.65483        2.47433       -1.34057
H         -0.05541        3.49334        1.01792
H          2.62221        4.57342       -1.58601
H          3.14565        7.22048       -1.05457
H          0.27653        5.89131        1.66017

--Link1--
%chk=JID_4667.chk
%mem=8GB
%nprocshared=4
# B3LYP/6-311++G(d,p) empiricaldispersion=gd3bj scf=xqc pop=npa geom=check

CID_129736043_JID_4667_Energie_neutraal

0 1

--Link1--
%chk=JID_4667.chk
%mem=8GB
%nprocshared=4
# B3LYP/6-311++G(d,p) empiricaldispersion=gd3bj scf=xqc pop=npa geom=check

CID_129736043_JID_4667_Energie_kation

1 2

--Link1--
%chk=JID_4667.chk
%mem=8GB
%nprocshared=4
# B3LYP/6-311++G(d,p) empiricaldispersion=gd3bj scf=xqc pop=npa geom=check

CID_129736043_JID_4667_Energie_anion

-1 2
