%chk=JID_8738.chk
%mem=8GB
%nprocshared=4
# opt freq B3LYP/6-31G(d) empiricaldispersion=gd3bj scf=xqc

CID_120718628_JID_8738_neutraal

0 1
C          1.30600        0.17900       -0.14100
C          0.92816       -1.28989       -0.03029
C         -0.58695       -1.33799       -0.14224
N         -1.06178        0.02602        0.17239
C         -0.00168        0.92662       -0.35647
S         -1.52160        0.36983        1.76283
O         -0.48328       -0.10229        2.64844
O         -1.95946        1.74694        1.78294
N         -2.86013       -0.57790        1.95199
C         -2.82455       -1.89470        2.58584
C         -4.01265       -2.62718        1.96963
C         -5.01265       -1.50500        1.62703
C         -4.05992       -0.39915        1.12858
C         -6.00830       -1.93269        0.53625
C         -7.03818       -2.93202        1.06431
N         -7.76798       -2.40136        2.21509
C         -6.86131       -2.04696        3.30705
C         -5.80774       -1.02945        2.86644
H          1.78506        0.50960        0.78792
H          2.01340        0.36491       -0.95525
H          1.25371       -1.68666        0.93813
H          1.40414       -1.89825       -0.80588
H         -0.88311       -1.56280       -1.17451
H         -1.02144       -2.11767        0.48080
H          0.00932        1.91474        0.11178
H         -0.18857        1.07862       -1.42626
H         -2.95724       -1.77610        3.66613
H         -1.89593       -2.44124        2.41223
H         -3.68296       -3.13391        1.05305
H         -4.40659       -3.39355        2.64246
H         -3.80790       -0.54973        0.07280
H         -4.48751        0.59966        1.25582
H         -6.53214       -1.04694        0.15208
H         -5.48122       -2.37451       -0.31828
H         -7.75681       -3.16417        0.27050
H         -6.55678       -3.87999        1.33211
H         -8.28356       -1.56830        1.92915
H         -7.45058       -1.62222        4.12758
H         -6.38884       -2.95097        3.70733
H         -6.31487       -0.08423        2.62852
H         -5.14298       -0.81366        3.71069

--Link1--
%chk=JID_8738.chk
%mem=8GB
%nprocshared=4
# B3LYP/6-311++G(d,p) empiricaldispersion=gd3bj scf=xqc pop=npa geom=check

CID_120718628_JID_8738_Energie_neutraal

0 1

--Link1--
%chk=JID_8738.chk
%mem=8GB
%nprocshared=4
# B3LYP/6-311++G(d,p) empiricaldispersion=gd3bj scf=xqc pop=npa geom=check

CID_120718628_JID_8738_Energie_kation

1 2

--Link1--
%chk=JID_8738.chk
%mem=8GB
%nprocshared=4
# B3LYP/6-311++G(d,p) empiricaldispersion=gd3bj scf=xqc pop=npa geom=check

CID_120718628_JID_8738_Energie_anion

-1 2
