%chk=JID_4509.chk
%mem=8GB
%nprocshared=4
# opt freq B3LYP/6-31G(d) empiricaldispersion=gd3bj scf=xqc

CID_152650280_JID_4509_neutraal

0 1
C          1.04921       -0.05296       -0.06909
C          0.61222        0.52073       -1.40744
N          0.54509       -0.52838       -2.42587
N          0.20118       -0.01929       -3.67462
N          1.08215        0.62036       -4.49524
N          2.28191        0.62362       -4.17543
N          3.38531        0.61626       -3.88587
N         -1.11629       -0.24150       -4.10410
C         -1.97757        0.89150       -3.65558
C         -1.52893        2.33796       -3.69803
C         -2.64276        1.88484       -4.58217
N         -1.34575       -0.60618       -5.51119
C         -0.38857       -1.63876       -5.94423
C         -2.68932       -1.20630       -5.62119
H          0.34166       -0.80987        0.28573
H          1.09999        0.74068        0.68326
H          2.03973       -0.51480       -0.13979
H         -0.36998        0.98722       -1.27738
H          1.31763        1.30776       -1.69593
H          1.41700       -1.04482       -2.49860
H         -2.55288        0.61219       -2.77446
H         -1.76871        2.95775       -2.84307
H         -0.59801        2.59822       -4.18483
H         -2.44067        1.83701       -5.64517
H         -3.65060        2.19610       -4.33586
H         -0.37918       -2.50971       -5.27799
H         -0.64077       -1.98779       -6.95359
H          0.63060       -1.25211       -6.02830
H         -2.79697       -2.10256       -4.99811
H         -3.48488       -0.50713       -5.34630
H         -2.89138       -1.48645       -6.66227

--Link1--
%chk=JID_4509.chk
%mem=8GB
%nprocshared=4
# B3LYP/6-311++G(d,p) empiricaldispersion=gd3bj scf=xqc pop=npa geom=check

CID_152650280_JID_4509_Energie_neutraal

0 1

--Link1--
%chk=JID_4509.chk
%mem=8GB
%nprocshared=4
# B3LYP/6-311++G(d,p) empiricaldispersion=gd3bj scf=xqc pop=npa geom=check

CID_152650280_JID_4509_Energie_kation

1 2

--Link1--
%chk=JID_4509.chk
%mem=8GB
%nprocshared=4
# B3LYP/6-311++G(d,p) empiricaldispersion=gd3bj scf=xqc pop=npa geom=check

CID_152650280_JID_4509_Energie_anion

-1 2
