%chk=JID_10964.chk
%mem=8GB
%nprocshared=4
# opt freq B3LYP/6-31G(d) empiricaldispersion=gd3bj scf=xqc

CID_108291638_JID_10964_neutraal

0 1
C          1.07710       -0.02696       -0.05770
C          0.41619        1.01629        0.85753
C          0.65666        2.42539        0.29594
C         -1.10378        0.75060        0.86076
N          0.82964        0.90737        2.26247
C          2.24052        0.75436        2.59172
C          3.09758        2.00282        2.57127
C          4.44958        1.89587        2.20382
C          5.33058        2.99021        2.30053
C          4.85623        4.23410        2.74834
C          3.50412        4.34196        3.11077
C          2.64207        3.24071        3.03792
S          5.87813        5.67871        3.04467
C          6.60109        5.91733        1.46622
N          6.03417        5.50879        0.35175
C          6.86233        5.79907       -0.71666
C          8.03922        6.44384       -0.40314
S          8.11606        6.70795        1.28748
C          6.71235        2.76239        1.98361
N          7.82715        2.54854        1.73875
H          0.62314       -0.01692       -1.05570
H          0.96243       -1.04060        0.34342
H          2.14676        0.16780       -0.19183
H          0.20435        2.53175       -0.69727
H          0.21154        3.19429        0.93801
H          1.72296        2.64586        0.18738
H         -1.33278       -0.25023        1.24740
H         -1.63976        1.47850        1.48186
H         -1.52031        0.81396       -0.15125
H          0.39695        1.62989        2.83086
H          2.28811        0.37252        3.62003
H          2.69595       -0.03374        1.98255
H          4.83700        0.93236        1.87021
H          3.10889        5.28553        3.48461
H          1.61432        3.36688        3.36919
H          6.55843        5.51281       -1.71621
H          8.83292        6.76195       -1.06350

--Link1--
%chk=JID_10964.chk
%mem=8GB
%nprocshared=4
# B3LYP/6-311++G(d,p) empiricaldispersion=gd3bj scf=xqc pop=npa geom=check

CID_108291638_JID_10964_Energie_neutraal

0 1

--Link1--
%chk=JID_10964.chk
%mem=8GB
%nprocshared=4
# B3LYP/6-311++G(d,p) empiricaldispersion=gd3bj scf=xqc pop=npa geom=check

CID_108291638_JID_10964_Energie_kation

1 2

--Link1--
%chk=JID_10964.chk
%mem=8GB
%nprocshared=4
# B3LYP/6-311++G(d,p) empiricaldispersion=gd3bj scf=xqc pop=npa geom=check

CID_108291638_JID_10964_Energie_anion

-1 2
