%chk=JID_8170.chk
%mem=8GB
%nprocshared=4
# opt freq B3LYP/6-31G(d) empiricaldispersion=gd3bj scf=xqc

CID_115539228_JID_8170_neutraal

0 1
C          1.03091       -0.09342        0.01780
C          0.96190        1.32322       -0.51513
O          1.63040        1.38486       -1.78263
C          2.93492        1.79599       -1.76173
O          3.55506        2.08960       -0.74833
C          3.48828        1.82549       -3.19730
C          4.96823        1.39827       -3.13951
C          5.61646        1.42643       -4.51794
C          5.42078        2.79262       -5.16003
C          3.94459        3.18777       -5.17786
N          3.35804        3.15401       -3.83410
C          2.05321        3.82223       -3.76081
C          0.95510        3.55455       -4.80426
C          0.01165        2.38140       -4.54037
C          0.50273        1.01207       -4.98297
C         -0.77659        0.30915       -5.36387
C         -1.56963        1.42650       -5.99216
O         -1.20050        2.62283       -5.29808
H          0.60130       -0.79726       -0.70273
H          0.48800       -0.18075        0.96306
H          2.07009       -0.39767        0.17959
H         -0.08217        1.60326       -0.68879
H          1.37279        2.04111        0.20329
H          2.96529        1.06707       -3.78426
H          5.05037        0.38893       -2.71742
H          5.52994        2.06139       -2.46772
H          6.68503        1.19949       -4.43575
H          5.16887        0.65167       -5.15224
H          5.99698        3.54506       -4.60673
H          5.81227        2.77936       -6.18354
H          3.87356        4.19952       -5.59553
H          3.40380        2.51401       -5.85381
H          1.62624        3.75926       -2.75406
H          2.28910        4.89239       -3.85742
H          0.33396        4.46246       -4.83151
H          1.36304        3.49483       -5.81965
H         -0.29059        2.36280       -3.48733
H          1.16116        1.08878       -5.85569
H          1.02723        0.46643       -4.19898
H         -0.62767       -0.54163       -6.03367
H         -1.28394       -0.04901       -4.46007
H         -1.30686        1.55613       -7.04743
H         -2.64956        1.27272       -5.91679

--Link1--
%chk=JID_8170.chk
%mem=8GB
%nprocshared=4
# B3LYP/6-311++G(d,p) empiricaldispersion=gd3bj scf=xqc pop=npa geom=check

CID_115539228_JID_8170_Energie_neutraal

0 1

--Link1--
%chk=JID_8170.chk
%mem=8GB
%nprocshared=4
# B3LYP/6-311++G(d,p) empiricaldispersion=gd3bj scf=xqc pop=npa geom=check

CID_115539228_JID_8170_Energie_kation

1 2

--Link1--
%chk=JID_8170.chk
%mem=8GB
%nprocshared=4
# B3LYP/6-311++G(d,p) empiricaldispersion=gd3bj scf=xqc pop=npa geom=check

CID_115539228_JID_8170_Energie_anion

-1 2
