%chk=JID_9511.chk
%mem=8GB
%nprocshared=4
# opt freq B3LYP/6-31G(d) empiricaldispersion=gd3bj scf=xqc

CID_115531622_JID_9511_neutraal

0 1
C          2.80600       -0.03700       -0.08400
N          1.43739       -0.06334        0.42014
C          0.75731        1.22010        0.18190
C         -0.69260        1.18831        0.70839
N         -1.51273        0.12560        0.09217
C         -0.82594       -1.20259        0.24537
C          0.65743       -1.14153       -0.23250
C         -1.47138       -2.39131       -0.48823
N         -2.33921       -2.16933       -1.49648
C         -2.88996       -3.24937       -2.07501
C         -2.58688       -4.54098       -1.71819
C         -1.64986       -4.69421       -0.71361
N         -1.09783       -3.62527       -0.08655
C         -1.20090       -6.10020       -0.30259
O          0.21869       -6.22675       -0.15143
C          0.91110       -6.19443       -1.39065
O         -1.89551       -6.56598        0.86357
C         -1.46558       -5.94518        2.06833
C         -2.84136        0.11340        0.70761
H          2.84927        0.14519       -1.16388
H          3.38510        0.74493        0.41956
H          3.31099       -0.98643        0.12545
H          1.29361        2.02225        0.70321
H          0.75292        1.47013       -0.88770
H         -1.14933        2.16311        0.49690
H         -0.66991        1.07107        1.80062
H         -0.81875       -1.45913        1.31534
H          0.68557       -1.01879       -1.32530
H          1.14466       -2.09984       -0.00837
H         -3.60539       -3.03613       -2.86391
H         -3.05194       -5.38293       -2.21343
H         -1.50445       -6.79808       -1.09318
H          0.57601       -7.00777       -2.04186
H          0.77915       -5.23166       -1.89284
H          1.97724       -6.33173       -1.19048
H         -0.38775       -6.05665        2.21837
H         -1.74825       -4.89003        2.09379
H         -1.97196       -6.44309        2.90035
H         -2.79958       -0.12082        1.77753
H         -3.32126        1.09224        0.59241
H         -3.50858       -0.60720        0.22605

--Link1--
%chk=JID_9511.chk
%mem=8GB
%nprocshared=4
# B3LYP/6-311++G(d,p) empiricaldispersion=gd3bj scf=xqc pop=npa geom=check

CID_115531622_JID_9511_Energie_neutraal

0 1

--Link1--
%chk=JID_9511.chk
%mem=8GB
%nprocshared=4
# B3LYP/6-311++G(d,p) empiricaldispersion=gd3bj scf=xqc pop=npa geom=check

CID_115531622_JID_9511_Energie_kation

1 2

--Link1--
%chk=JID_9511.chk
%mem=8GB
%nprocshared=4
# B3LYP/6-311++G(d,p) empiricaldispersion=gd3bj scf=xqc pop=npa geom=check

CID_115531622_JID_9511_Energie_anion

-1 2
