%chk=JID_7373.chk
%mem=8GB
%nprocshared=4
# opt freq B3LYP/6-31G(d) empiricaldispersion=gd3bj scf=xqc

CID_62263729_JID_7373_neutraal

0 1
C          1.06514       -0.07155       -0.02525
C          0.33384       -1.02030       -0.95792
N          1.22160       -1.41770       -2.04644
C          0.59882       -2.43815       -2.89322
C          1.42074       -2.88382       -4.13947
C          2.84782       -3.29240       -3.78687
C          3.63427       -1.99431       -3.82553
O          2.89389       -1.06043       -4.62558
C          1.69698       -1.70624       -5.07911
C          0.62896       -3.98271       -4.90615
N          0.25933       -5.13887       -4.06216
C          1.20546       -6.25110       -4.27531
C          0.95474       -7.41305       -3.31915
C         -0.46715       -7.92594       -3.46023
C         -1.44907       -6.77762       -3.28961
C         -1.14356       -5.59023       -4.23045
C         -2.17725       -4.49624       -3.90631
H          1.95210       -0.54645        0.40791
H          0.40879        0.22917        0.79775
H          1.38378        0.83567       -0.54986
H          0.01305       -1.89707       -0.38371
H         -0.56094       -0.52638       -1.35357
H          1.48126       -0.60448       -2.60860
H          0.41082       -3.31308       -2.25974
H         -0.37550       -2.06824       -3.23866
H          3.25864       -3.95429       -4.55921
H          2.94495       -3.81019       -2.82767
H          3.77553       -1.56370       -2.82987
H          4.62520       -2.13526       -4.26860
H          1.88591       -2.04015       -6.10630
H          0.88251       -0.97550       -5.11004
H         -0.25466       -3.50352       -5.33974
H          1.20045       -4.31514       -5.78452
H          1.14509       -6.61134       -5.31103
H          2.23396       -5.91642       -4.11201
H          1.13275       -7.08766       -2.28628
H          1.66285       -8.22336       -3.52598
H         -0.66310       -8.70266       -2.71289
H         -0.60188       -8.38421       -4.44726
H         -1.42224       -6.43896       -2.24470
H         -2.46470       -7.14899       -3.47360
H         -1.29937       -5.91536       -5.26800
H         -2.16138       -3.67253       -4.62448
H         -3.19286       -4.90793       -3.93233
H         -2.01646       -4.08072       -2.90543

--Link1--
%chk=JID_7373.chk
%mem=8GB
%nprocshared=4
# B3LYP/6-311++G(d,p) empiricaldispersion=gd3bj scf=xqc pop=npa geom=check

CID_62263729_JID_7373_Energie_neutraal

0 1

--Link1--
%chk=JID_7373.chk
%mem=8GB
%nprocshared=4
# B3LYP/6-311++G(d,p) empiricaldispersion=gd3bj scf=xqc pop=npa geom=check

CID_62263729_JID_7373_Energie_kation

1 2

--Link1--
%chk=JID_7373.chk
%mem=8GB
%nprocshared=4
# B3LYP/6-311++G(d,p) empiricaldispersion=gd3bj scf=xqc pop=npa geom=check

CID_62263729_JID_7373_Energie_anion

-1 2
