%chk=JID_5157.chk
%mem=8GB
%nprocshared=4
# opt freq B3LYP/6-31G(d) empiricaldispersion=gd3bj scf=xqc

CID_12063363_JID_5157_neutraal

0 1
C         -0.65900       -1.22800       -0.05100
C         -1.38015       -0.04826       -0.35044
C         -0.72602        1.18097       -0.51786
C          0.64238        1.18954       -0.38254
C          1.31078        0.02727       -0.08489
C          0.72909       -1.20035        0.08755
C          2.60321        0.65090       -0.08900
O          3.68561        0.15597        0.09716
C          1.88714        2.06147       -0.41305
C          2.29803        2.56052       -1.80385
C          2.25442        1.87345       -3.00342
C          2.74648        2.75829       -3.99382
C          3.06106        3.92635       -3.34272
O          2.79479        3.81781       -2.01718
O          1.99636        3.03440        0.64944
H         -1.19695       -2.16558        0.07528
H         -2.46359       -0.09667       -0.44709
H         -1.27756        2.08870       -0.73853
H          1.30977       -2.08507        0.31631
H          1.91311        0.85796       -3.15514
H          2.86050        2.56757       -5.05184
H          3.46414        4.87738       -3.66276
H          2.85754        3.45644        0.47921

--Link1--
%chk=JID_5157.chk
%mem=8GB
%nprocshared=4
# B3LYP/6-311++G(d,p) empiricaldispersion=gd3bj scf=xqc pop=npa geom=check

CID_12063363_JID_5157_Energie_neutraal

0 1

--Link1--
%chk=JID_5157.chk
%mem=8GB
%nprocshared=4
# B3LYP/6-311++G(d,p) empiricaldispersion=gd3bj scf=xqc pop=npa geom=check

CID_12063363_JID_5157_Energie_kation

1 2

--Link1--
%chk=JID_5157.chk
%mem=8GB
%nprocshared=4
# B3LYP/6-311++G(d,p) empiricaldispersion=gd3bj scf=xqc pop=npa geom=check

CID_12063363_JID_5157_Energie_anion

-1 2
