%chk=JID_4091.chk
%mem=8GB
%nprocshared=4
# opt freq B3LYP/6-31G(d) empiricaldispersion=gd3bj scf=xqc

CID_116170265_JID_4091_neutraal

0 1
C          1.06168        0.06616        0.04264
C          0.35882       -0.71611       -1.05620
C          0.74179       -2.20083       -1.09072
C          0.31145       -2.97175        0.11292
C          0.97604       -3.95876        0.81059
N          0.08383       -4.34382        1.76387
N         -1.06106       -3.64846        1.67581
N         -0.93875       -2.80930        0.65681
C          0.22867       -5.39127        2.74822
C          1.07321       -4.98648        3.95252
C          0.52035       -3.81599        4.77183
C         -0.84033       -4.09150        5.39788
O          1.45571       -3.53625        5.81621
O          0.16697       -2.77324       -2.27214
H          0.77701       -0.29368        1.03607
H          0.79281        1.12552       -0.01885
H          2.14909       -0.01301       -0.05459
H         -0.72756       -0.60397       -0.94897
H          0.60512       -0.26378       -2.02550
H          1.82911       -2.28444       -1.20401
H          1.95120       -4.40740        0.69586
H         -0.77165       -5.71921        3.05115
H          0.69932       -6.24019        2.23810
H          1.19685       -5.85894        4.60760
H          2.08869       -4.73119        3.62094
H          0.46284       -2.91365        4.15474
H         -0.81297       -4.99712        6.01383
H         -1.12584       -3.26897        6.06281
H         -1.62137       -4.20719        4.64186
H          1.40255       -4.25003        6.47470
H         -0.78573       -2.86394       -2.08610

--Link1--
%chk=JID_4091.chk
%mem=8GB
%nprocshared=4
# B3LYP/6-311++G(d,p) empiricaldispersion=gd3bj scf=xqc pop=npa geom=check

CID_116170265_JID_4091_Energie_neutraal

0 1

--Link1--
%chk=JID_4091.chk
%mem=8GB
%nprocshared=4
# B3LYP/6-311++G(d,p) empiricaldispersion=gd3bj scf=xqc pop=npa geom=check

CID_116170265_JID_4091_Energie_kation

1 2

--Link1--
%chk=JID_4091.chk
%mem=8GB
%nprocshared=4
# B3LYP/6-311++G(d,p) empiricaldispersion=gd3bj scf=xqc pop=npa geom=check

CID_116170265_JID_4091_Energie_anion

-1 2
