%chk=JID_5714.chk
%mem=8GB
%nprocshared=4
# opt freq B3LYP/6-31G(d) empiricaldispersion=gd3bj scf=xqc

CID_61485844_JID_5714_neutraal

0 1
C          0.96768        0.09377        0.01276
C          0.54006       -1.18900        0.70886
C          0.98913       -1.27313        2.17146
C          0.40217       -0.19966        3.08895
N         -1.03709       -0.32621        3.21945
C         -1.73747       -0.94027        4.21900
O         -2.93309       -1.18551        4.04298
C         -1.03638       -1.29175        5.53420
N         -0.28573       -2.54674        5.38559
C          0.45034       -2.93700        6.60176
C         -0.48612       -3.29507        7.78304
C         -1.41710       -4.47666        7.54282
C          1.44884       -4.08080        6.23517
C          2.44169       -3.63880        5.14846
C          2.25083       -4.57162        7.44730
H          0.45589        0.96634        0.42868
H          0.71937        0.04291       -1.05232
H          2.04753        0.24871        0.10137
H         -0.54771       -1.29887        0.63658
H          0.97493       -2.03806        0.16754
H          0.71407       -2.26382        2.55103
H          2.08336       -1.21004        2.21130
H          0.87819       -0.26790        4.07002
H          0.60400        0.80379        2.70336
H         -1.60265       -0.15041        2.39825
H         -0.38800       -0.46190        5.83299
H         -1.82283       -1.38187        6.29094
H         -0.93353       -3.28621        5.10994
H          1.05630       -2.07710        6.91984
H          0.11374       -3.49683        8.67796
H         -1.09448       -2.42415        8.05348
H         -0.86038       -5.39366        7.33126
H         -2.02312       -4.65796        8.43678
H         -2.10453       -4.28678        6.71356
H          0.88984       -4.93735        5.83630
H          2.99772       -2.74745        5.45820
H          3.16655       -4.43247        4.93639
H          1.93156       -3.41513        4.20816
H          1.60884       -5.07094        8.17876
H          3.00926       -5.30193        7.14412
H          2.76260       -3.74146        7.94566

--Link1--
%chk=JID_5714.chk
%mem=8GB
%nprocshared=4
# B3LYP/6-311++G(d,p) empiricaldispersion=gd3bj scf=xqc pop=npa geom=check

CID_61485844_JID_5714_Energie_neutraal

0 1

--Link1--
%chk=JID_5714.chk
%mem=8GB
%nprocshared=4
# B3LYP/6-311++G(d,p) empiricaldispersion=gd3bj scf=xqc pop=npa geom=check

CID_61485844_JID_5714_Energie_kation

1 2

--Link1--
%chk=JID_5714.chk
%mem=8GB
%nprocshared=4
# B3LYP/6-311++G(d,p) empiricaldispersion=gd3bj scf=xqc pop=npa geom=check

CID_61485844_JID_5714_Energie_anion

-1 2
