%chk=JID_7525.chk
%mem=8GB
%nprocshared=4
# opt freq B3LYP/6-31G(d) empiricaldispersion=gd3bj scf=xqc

CID_136958835_JID_7525_neutraal

0 1
C         -1.43100        0.32400       -0.23100
C         -0.91017       -1.10278       -0.07198
C          0.51014       -1.31232       -0.61372
C          1.47895       -0.23492       -0.11003
C          0.96520        1.19681       -0.30664
C         -0.43891        1.36076        0.28848
N          0.95124        1.54402       -1.71960
C          1.91301        2.21927       -2.44534
C          3.19662        2.28315       -2.05219
C          4.16521        3.02506       -2.86728
O          5.34019        3.13276       -2.53778
N          3.66132        3.58655       -3.99665
C          2.34706        3.46174       -4.31438
N          1.48362        2.82274       -3.60412
C          0.62052       -1.45828       -2.11988
O          1.62981       -1.79968       -2.71909
O         -0.50571       -1.19556       -2.80345
H         -2.37753        0.42528        0.31319
H         -1.66352        0.52513       -1.28216
H         -0.90738       -1.34547        0.99914
H         -1.61205       -1.80214       -0.54168
H          0.84671       -2.28494       -0.22741
H          2.45999       -0.35472       -0.58568
H          1.63794       -0.39563        0.96479
H          1.62706        1.88709        0.23116
H         -0.82443        2.36642        0.08051
H         -0.37358        1.26851        1.38028
H          0.03785        1.73043       -2.12954
H          3.57850        1.81238       -1.15957
H          4.30254        4.10255       -4.57939
H          2.06079        3.96365       -5.25170
H         -0.22195       -1.27248       -3.73864

--Link1--
%chk=JID_7525.chk
%mem=8GB
%nprocshared=4
# B3LYP/6-311++G(d,p) empiricaldispersion=gd3bj scf=xqc pop=npa geom=check

CID_136958835_JID_7525_Energie_neutraal

0 1

--Link1--
%chk=JID_7525.chk
%mem=8GB
%nprocshared=4
# B3LYP/6-311++G(d,p) empiricaldispersion=gd3bj scf=xqc pop=npa geom=check

CID_136958835_JID_7525_Energie_kation

1 2

--Link1--
%chk=JID_7525.chk
%mem=8GB
%nprocshared=4
# B3LYP/6-311++G(d,p) empiricaldispersion=gd3bj scf=xqc pop=npa geom=check

CID_136958835_JID_7525_Energie_anion

-1 2
