%chk=JID_4688.chk
%mem=8GB
%nprocshared=4
# opt freq B3LYP/6-31G(d) empiricaldispersion=gd3bj scf=xqc

CID_90144630_JID_4688_neutraal

0 1
C          1.07019       -0.06841        0.01985
C          0.94256       -1.09683        1.14203
C          1.92997       -0.83118        2.27793
N         -0.44292       -1.17386        1.64200
C         -0.97223       -0.02328        2.37335
C         -2.36719        0.33826        1.92065
C         -2.63415        1.57397        1.31258
C         -3.93065        1.89893        0.91161
C         -4.96984        0.99259        1.10838
C         -4.71580       -0.24141        1.70630
C         -3.41868       -0.57626        2.11859
C         -3.12962       -1.90656        2.76859
N         -2.26417       -2.78448        1.99321
C         -1.13238       -2.37058        1.56174
H          0.89087        0.95244        0.37130
H          0.35025       -0.27605       -0.77921
H          2.07510       -0.09661       -0.41479
H          1.22468       -2.06419        0.70682
H          1.80091        0.16451        2.71414
H          1.80541       -1.56603        3.08066
H          2.96070       -0.89961        1.91401
H         -0.32894        0.85548        2.25398
H         -0.97375       -0.23390        3.45014
H         -1.83436        2.29086        1.14452
H         -4.13025        2.85785        0.44076
H         -5.97851        1.24308        0.79065
H         -5.53358       -0.94509        1.84378
H         -4.07514       -2.43948        2.92788
H         -2.71943       -1.75432        3.77480
H         -0.56133       -3.12069        0.98743

--Link1--
%chk=JID_4688.chk
%mem=8GB
%nprocshared=4
# B3LYP/6-311++G(d,p) empiricaldispersion=gd3bj scf=xqc pop=npa geom=check

CID_90144630_JID_4688_Energie_neutraal

0 1

--Link1--
%chk=JID_4688.chk
%mem=8GB
%nprocshared=4
# B3LYP/6-311++G(d,p) empiricaldispersion=gd3bj scf=xqc pop=npa geom=check

CID_90144630_JID_4688_Energie_kation

1 2

--Link1--
%chk=JID_4688.chk
%mem=8GB
%nprocshared=4
# B3LYP/6-311++G(d,p) empiricaldispersion=gd3bj scf=xqc pop=npa geom=check

CID_90144630_JID_4688_Energie_anion

-1 2
