%chk=JID_6181.chk
%mem=8GB
%nprocshared=4
# opt freq B3LYP/6-31G(d) empiricaldispersion=gd3bj scf=xqc

CID_66902769_JID_6181_neutraal

0 1
C          1.08140        0.05111       -0.02760
C          0.29314        0.73034        1.10265
C          0.67909        2.21253        1.14816
C         -1.20373        0.53327        0.84024
O          0.71441        0.04218        2.30910
C          0.20709        0.38390        3.52666
O         -0.63780        1.24976        3.71484
C          0.86964       -0.41687        4.63466
C         -0.04073       -0.44418        5.88562
C         -0.04817       -1.88082        6.30507
C          0.54398       -2.66967        5.40594
C          1.04954       -1.89798        4.22876
C          2.21195        0.21807        4.96360
O          2.69835        1.17251        4.36921
O          2.82862       -0.41598        6.00344
C          4.09463        0.13724        6.36706
H          0.85091        0.48836       -1.00476
H          0.85951       -1.02180       -0.06702
H          2.16079        0.13684        0.14420
H          0.50962        2.69827        0.18119
H          0.10136        2.76271        1.89691
H          1.73467        2.33109        1.41766
H         -1.47409       -0.52646        0.90845
H         -1.82145        1.06262        1.57173
H         -1.48575        0.90197       -0.15192
H          0.34282        0.18514        6.69619
H         -1.07248       -0.13733        5.68214
H         -0.50102       -2.22865        7.22439
H          0.63627       -3.74398        5.49813
H          0.45947       -2.18103        3.34980
H          2.09688       -2.15145        4.03110
H          4.80243        0.04872        5.53715
H          3.98290        1.18180        6.67418
H          4.48181       -0.43331        7.21573

--Link1--
%chk=JID_6181.chk
%mem=8GB
%nprocshared=4
# B3LYP/6-311++G(d,p) empiricaldispersion=gd3bj scf=xqc pop=npa geom=check

CID_66902769_JID_6181_Energie_neutraal

0 1

--Link1--
%chk=JID_6181.chk
%mem=8GB
%nprocshared=4
# B3LYP/6-311++G(d,p) empiricaldispersion=gd3bj scf=xqc pop=npa geom=check

CID_66902769_JID_6181_Energie_kation

1 2

--Link1--
%chk=JID_6181.chk
%mem=8GB
%nprocshared=4
# B3LYP/6-311++G(d,p) empiricaldispersion=gd3bj scf=xqc pop=npa geom=check

CID_66902769_JID_6181_Energie_anion

-1 2
