%chk=JID_8512.chk
%mem=8GB
%nprocshared=4
# opt freq B3LYP/6-31G(d) empiricaldispersion=gd3bj scf=xqc

CID_106101287_JID_8512_neutraal

0 1
C          1.06438        0.02682       -0.07166
C          0.55142        1.33653        0.50883
C         -0.72461        1.23539        1.37199
C         -0.43909        2.24436        2.46940
C          1.05141        2.07844        2.66062
O          1.59601        1.88077        1.35085
C         -2.03682        1.54731        0.62235
N         -2.34882        0.50377       -0.36455
C         -3.72055        0.66922       -0.88335
C         -3.94573       -0.27504       -2.07387
O         -4.64922       -1.27941       -1.94088
N         -3.29981        0.03029       -3.28093
C         -3.59055       -0.85501       -4.40997
C         -2.47393       -0.86367       -5.44855
C         -2.11154        0.55059       -5.88391
C         -1.75257        1.39533       -4.66794
C         -2.87211        1.38644       -3.63148
O         -0.85650       -0.05563        1.98663
H          0.32631       -0.45151       -0.71992
H          1.34978       -0.67470        0.71977
H          1.97127        0.20740       -0.65955
H          0.41139        2.06533       -0.29827
H         -0.98716        2.06174        3.39842
H         -0.65099        3.26309        2.12322
H          1.28758        1.19723        3.26719
H          1.51528        2.95451        3.12210
H         -2.84875        1.58504        1.36018
H         -1.97975        2.52674        0.13263
H         -1.69635        0.54432       -1.14815
H         -4.44213        0.39923       -0.10328
H         -3.94043        1.69885       -1.18287
H         -4.52988       -0.51104       -4.86046
H         -3.75475       -1.87906       -4.05663
H         -2.77930       -1.45623       -6.31797
H         -1.58607       -1.34791       -5.02292
H         -1.26702        0.52194       -6.58114
H         -2.95666        1.00429       -6.41563
H         -0.83545        1.00017       -4.21311
H         -1.54133        2.42489       -4.97737
H         -2.53064        1.93421       -2.75123
H         -3.75444        1.91251       -4.01594
H         -1.35979       -0.59738        1.34361

--Link1--
%chk=JID_8512.chk
%mem=8GB
%nprocshared=4
# B3LYP/6-311++G(d,p) empiricaldispersion=gd3bj scf=xqc pop=npa geom=check

CID_106101287_JID_8512_Energie_neutraal

0 1

--Link1--
%chk=JID_8512.chk
%mem=8GB
%nprocshared=4
# B3LYP/6-311++G(d,p) empiricaldispersion=gd3bj scf=xqc pop=npa geom=check

CID_106101287_JID_8512_Energie_kation

1 2

--Link1--
%chk=JID_8512.chk
%mem=8GB
%nprocshared=4
# B3LYP/6-311++G(d,p) empiricaldispersion=gd3bj scf=xqc pop=npa geom=check

CID_106101287_JID_8512_Energie_anion

-1 2
