%chk=JID_10151.chk
%mem=8GB
%nprocshared=4
# opt=(cartesian,calcfc) freq B3LYP/6-31G(d) empiricaldispersion=gd3bj scf=xqc

CID_79212634_JID_10151_neutraal

0 1
6	2.876843	 1.255705	 1.585920
6	1.571562	 0.684982	 0.996541
6	0.718012	 0.098552	 2.122531
6	0.894219	 1.852897	 0.255208
8	1.274671	 2.284173	 -0.807058
8	-0.123116	 2.381643	 0.959057
7	1.905542	 -0.341886	 -0.019055
6	1.158039	 -1.205875	 -0.767390
7	1.973151	 -1.829719	 -1.601260
7	3.218268	 -1.343398	 -1.369691
7	3.195589	 -0.453338	 -0.439337
6	-0.307268	 -1.537605	 -0.735799
6	-0.687558	 -2.447274	 0.474048
16	-2.326320	 -1.893600	 1.130889
6	-2.322103	 -0.428514	 0.128232
6	-3.287536	 0.577014	 0.177813
6	-3.188372	 1.649334	 -0.711308
6	-2.148112	 1.711394	 -1.642329
6	-1.183573	 0.700909	 -1.679845
6	-1.256472	 -0.356332	 -0.777385
1	2.608452	 2.019729	 2.321944
1	3.501370	 1.698607	 0.811419
1	3.442680	 0.464839	 2.084019
1	0.600697	 0.848349	 2.907595
1	-0.282911	 -0.181873	 1.795619
1	1.223697	 -0.772215	 2.548007
1	-0.501173	 3.090384	 0.404108
1	-0.448751	 -2.123611	 -1.650655
1	-0.765191	 -3.490832	 0.166178
1	0.050765	 -2.383486	 1.274171
1	-4.104105	 0.524288	 0.891038
1	-3.937518	 2.435602	 -0.681801
1	-2.088328	 2.538761	 -2.342880
1	-0.364949	 0.749796	 -2.391007

--Link1--
%chk=JID_10151.chk
%mem=8GB
%nprocshared=4
# B3LYP/6-311++G(d,p) empiricaldispersion=gd3bj scf=xqc pop=npa geom=check

CID_79212634_JID_10151_Energie_neutraal

0 1

--Link1--
%chk=JID_10151.chk
%mem=8GB
%nprocshared=4
# B3LYP/6-311++G(d,p) empiricaldispersion=gd3bj scf=xqc pop=npa geom=check

CID_79212634_JID_10151_Energie_kation

1 2

--Link1--
%chk=JID_10151.chk
%mem=8GB
%nprocshared=4
# B3LYP/6-311++G(d,p) empiricaldispersion=gd3bj scf=xqc pop=npa geom=check

CID_79212634_JID_10151_Energie_anion

-1 2
