%chk=JID_3260.chk
%mem=8GB
%nprocshared=4
# opt freq B3LYP/6-31G(d) empiricaldispersion=gd3bj scf=xqc

CID_144535833_JID_3260_neutraal

0 1
C          1.05667       -0.05433        0.06195
C          0.60310        1.35715       -0.13875
N          1.40979        2.34005        0.29186
C          0.95454        3.59372        0.12056
C         -0.26261        3.90645       -0.45512
C         -0.70770        5.33090       -0.57316
C         -1.86480        5.51274       -1.54945
C         -2.93592        4.45632       -1.30028
C         -2.40073        3.01704       -1.50800
C         -1.03962        2.82386       -0.84162
N         -0.60737        1.54899       -0.69530
C         -3.43553        2.03959       -0.91292
C         -2.25270        2.71540       -3.01317
H          0.68009       -0.69633       -0.74022
H          0.68261       -0.42877        1.01917
H          2.14938       -0.11278        0.06277
H          1.62505        4.37116        0.47726
H          0.12894        5.96200       -0.89593
H         -1.01600        5.67678        0.42151
H         -1.50114        5.44984       -2.58144
H         -2.29126        6.51513       -1.42804
H         -3.30309        4.57459       -0.27121
H         -3.79495        4.64184       -1.95710
H         -4.42646        2.19998       -1.35322
H         -3.16293        0.99367       -1.09610
H         -3.52533        2.16858        0.17218
H         -1.49027        3.34495       -3.48483
H         -1.95600        1.67368       -3.18505
H         -3.19772        2.87895       -3.54344

--Link1--
%chk=JID_3260.chk
%mem=8GB
%nprocshared=4
# B3LYP/6-311++G(d,p) empiricaldispersion=gd3bj scf=xqc pop=npa geom=check

CID_144535833_JID_3260_Energie_neutraal

0 1

--Link1--
%chk=JID_3260.chk
%mem=8GB
%nprocshared=4
# B3LYP/6-311++G(d,p) empiricaldispersion=gd3bj scf=xqc pop=npa geom=check

CID_144535833_JID_3260_Energie_kation

1 2

--Link1--
%chk=JID_3260.chk
%mem=8GB
%nprocshared=4
# B3LYP/6-311++G(d,p) empiricaldispersion=gd3bj scf=xqc pop=npa geom=check

CID_144535833_JID_3260_Energie_anion

-1 2
