%chk=JID_10926.chk
%mem=8GB
%nprocshared=4
# opt freq B3LYP/6-31G(d) empiricaldispersion=gd3bj scf=xqc

CID_126820138_JID_10926_neutraal

0 1
C          1.02558        0.09665       -0.00213
C         -0.10526        0.22609       -0.70682
C         -1.44108       -0.12511       -0.18203
O         -2.41714        0.55248       -0.48611
N         -1.54984       -1.14698        0.71573
C         -1.47494       -2.58104        0.39004
C         -2.67534       -3.05083       -0.44712
C         -2.49949       -2.83028       -1.94569
C         -1.20743       -3.47919       -2.46544
C          0.01828       -2.99895       -1.68314
C         -0.14780       -3.10929       -0.16876
O         -0.92570       -3.37029       -3.87299
C         -1.45661       -2.27307       -4.48960
N         -2.71617       -2.40071       -4.95419
C         -3.23609       -1.32930       -5.59840
C         -2.54551       -0.14437       -5.80955
C         -1.23425       -0.05655       -5.34024
C         -0.67187       -1.14675       -4.67785
C         -3.16464        0.94204       -6.49950
N         -3.66478        1.82288       -7.06499
H          1.02926       -0.31259        1.00343
H          1.97442        0.42298       -0.41437
H         -0.10674        0.70477       -1.67956
H         -2.41877       -0.97958        1.21162
H         -1.59087       -3.04335        1.38031
H         -2.81834       -4.12592       -0.27533
H         -3.59616       -2.55901       -0.11085
H         -2.51172       -1.75589       -2.15714
H         -3.36257       -3.25443       -2.47273
H         -1.30038       -4.55894       -2.28770
H          0.25540       -1.97468       -1.97365
H          0.89543       -3.58220       -1.99249
H          0.70500       -2.65233        0.34250
H         -0.09585       -4.17959        0.07646
H         -4.25654       -1.46403       -5.94987
H         -0.64817        0.84703       -5.49112
H          0.34980       -1.11666       -4.31790

--Link1--
%chk=JID_10926.chk
%mem=8GB
%nprocshared=4
# B3LYP/6-311++G(d,p) empiricaldispersion=gd3bj scf=xqc pop=npa geom=check

CID_126820138_JID_10926_Energie_neutraal

0 1

--Link1--
%chk=JID_10926.chk
%mem=8GB
%nprocshared=4
# B3LYP/6-311++G(d,p) empiricaldispersion=gd3bj scf=xqc pop=npa geom=check

CID_126820138_JID_10926_Energie_kation

1 2

--Link1--
%chk=JID_10926.chk
%mem=8GB
%nprocshared=4
# B3LYP/6-311++G(d,p) empiricaldispersion=gd3bj scf=xqc pop=npa geom=check

CID_126820138_JID_10926_Energie_anion

-1 2
