%chk=JID_8527.chk
%mem=8GB
%nprocshared=4
# opt freq B3LYP/6-31G(d) empiricaldispersion=gd3bj scf=xqc

CID_133501719_JID_8527_neutraal

0 1
C          2.44200       -0.09800       -0.00700
C          0.99316        0.01674       -0.37248
N          0.61624        1.11035       -1.06802
C         -0.67687        1.17201       -1.44196
C         -1.62146        0.19997       -1.14439
C         -1.24936       -0.90301       -0.38060
C          0.10090       -0.99698       -0.02358
N         -2.08652       -1.97906       -0.09080
C         -3.54079       -1.91383       -0.19589
C         -4.14026       -2.95467       -1.19551
C         -3.38628       -2.97582       -2.56178
C         -2.09243       -3.79092       -2.60977
C         -2.26356       -5.18182       -2.01862
C         -2.83483       -5.12287       -0.61046
C         -4.16707       -4.37982       -0.57946
C         -5.61728       -2.52196       -1.52639
C         -6.61793       -2.49319       -0.37135
O         -6.30687       -1.45051        0.53708
H          2.98948        0.80564       -0.29382
H          2.55181       -0.23208        1.07367
H          2.89417       -0.95045       -0.52325
H         -0.94805        2.04916       -2.02209
H         -2.62465        0.32845       -1.52865
H          0.46468       -1.86624        0.51492
H         -1.77312       -2.52055        0.70992
H         -3.93595       -2.10277        0.80951
H         -3.88484       -0.90877       -0.45581
H         -4.04916       -3.40802       -3.32437
H         -3.18342       -1.95086       -2.89590
H         -1.28141       -3.27203       -2.09261
H         -1.76648       -3.88124       -3.65312
H         -1.29699       -5.69808       -2.00398
H         -2.92923       -5.77259       -2.65995
H         -2.11605       -4.65380        0.06844
H         -2.98519       -6.14385       -0.23972
H         -4.52152       -4.34265        0.45772
H         -4.89689       -4.99178       -1.12738
H         -5.58935       -1.52451       -1.98614
H         -6.02263       -3.20382       -2.28593
H         -7.61975       -2.29963       -0.76970
H         -6.64759       -3.44330        0.16854
H         -7.01614       -1.43045        1.20344

--Link1--
%chk=JID_8527.chk
%mem=8GB
%nprocshared=4
# B3LYP/6-311++G(d,p) empiricaldispersion=gd3bj scf=xqc pop=npa geom=check

CID_133501719_JID_8527_Energie_neutraal

0 1

--Link1--
%chk=JID_8527.chk
%mem=8GB
%nprocshared=4
# B3LYP/6-311++G(d,p) empiricaldispersion=gd3bj scf=xqc pop=npa geom=check

CID_133501719_JID_8527_Energie_kation

1 2

--Link1--
%chk=JID_8527.chk
%mem=8GB
%nprocshared=4
# B3LYP/6-311++G(d,p) empiricaldispersion=gd3bj scf=xqc pop=npa geom=check

CID_133501719_JID_8527_Energie_anion

-1 2
