%chk=JID_7110.chk
%mem=8GB
%nprocshared=4
# opt freq B3LYP/6-31G(d) empiricaldispersion=gd3bj scf=xqc

CID_116431675_JID_7110_neutraal

0 1
C          1.08648       -0.01687       -0.04730
C          0.58009       -1.38337       -0.47496
C          1.51507       -2.51804       -0.10838
C          0.61013       -3.74915       -0.21500
N         -0.73508       -3.27548        0.17653
C         -0.70760       -1.80108        0.22089
C         -1.88146       -3.80079       -0.59109
C         -1.81537       -3.55723       -2.10860
C         -2.15178       -5.29736       -0.32072
C         -2.39914       -5.66669        1.15092
C         -3.54019       -4.91768        1.85318
N         -4.82794       -5.18102        1.21053
C         -5.99893       -4.51223        1.80791
C         -5.92959       -2.98628        1.62893
C         -7.22659       -5.03814        1.03883
C         -6.17593       -4.85914        3.29497
C          1.13316       -4.86339        0.68598
H          1.26079        0.02789        1.03303
H          0.35981        0.76079       -0.30394
H          2.02968        0.21945       -0.55052
H          0.42632       -1.38130       -1.56212
H          2.37131       -2.57892       -0.78831
H          1.89893       -2.39076        0.91221
H          0.63641       -4.09197       -1.25439
H         -0.69317       -1.50013        1.27575
H         -1.58030       -1.31892       -0.23415
H         -2.77429       -3.26451       -0.24349
H         -1.03946       -4.15668       -2.59383
H         -2.77019       -3.82899       -2.57355
H         -1.63591       -2.50397       -2.34407
H         -3.02120       -5.61348       -0.91141
H         -1.31770       -5.90105       -0.69843
H         -2.59552       -6.74568        1.20347
H         -1.48342       -5.50225        1.72944
H         -3.56109       -5.27011        2.88998
H         -3.31489       -3.84764        1.87800
H         -4.77273       -4.93172        0.22451
H         -5.77379       -2.71403        0.57852
H         -6.86232       -2.51184        1.95585
H         -5.11914       -2.54107        2.21551
H         -7.32218       -6.12643        1.13470
H         -8.15282       -4.59193        1.41944
H         -7.16427       -4.80107       -0.03010
H         -6.17246       -5.94371        3.45394
H         -5.38572       -4.42265        3.91519
H         -7.12970       -4.47494        3.67550
H          0.57627       -5.79312        0.54673
H          2.18361       -5.07745        0.45959
H          1.07122       -4.58648        1.74441

--Link1--
%chk=JID_7110.chk
%mem=8GB
%nprocshared=4
# B3LYP/6-311++G(d,p) empiricaldispersion=gd3bj scf=xqc pop=npa geom=check

CID_116431675_JID_7110_Energie_neutraal

0 1

--Link1--
%chk=JID_7110.chk
%mem=8GB
%nprocshared=4
# B3LYP/6-311++G(d,p) empiricaldispersion=gd3bj scf=xqc pop=npa geom=check

CID_116431675_JID_7110_Energie_kation

1 2

--Link1--
%chk=JID_7110.chk
%mem=8GB
%nprocshared=4
# B3LYP/6-311++G(d,p) empiricaldispersion=gd3bj scf=xqc pop=npa geom=check

CID_116431675_JID_7110_Energie_anion

-1 2
