%chk=JID_3065.chk
%mem=8GB
%nprocshared=4
# opt freq B3LYP/6-31G(d) empiricaldispersion=gd3bj scf=xqc

CID_10329991_JID_3065_neutraal

0 1
C          0.99302       -0.09970       -0.00342
C          0.64806       -0.25913        1.46862
C          0.91633        1.00502        2.23636
C          0.01312        1.84731        2.78328
C         -1.48407        1.68412        2.62411
C         -2.11808        1.01106        3.83280
C          0.44048        3.07760        3.57017
C          1.50834        2.79279        4.59067
C          2.77651        3.23257        4.65672
C          3.54354        4.09990        3.73651
O          4.60456        4.60718        4.07228
O          2.96690        4.20402        2.52040
C          3.69027        5.01921        1.59868
H          0.37723        0.67585       -0.47131
H          0.81723       -1.03928       -0.53693
H          2.04536        0.17280       -0.13766
H         -0.38983       -0.59019        1.56817
H          1.26286       -1.05876        1.89877
H          1.97611        1.22742        2.36189
H         -1.94260        2.66877        2.46863
H         -1.72796        1.11217        1.72244
H         -1.95555        1.59140        4.74690
H         -3.19841        0.91301        3.68534
H         -1.70630        0.00825        3.98814
H          0.69766        3.87872        2.87345
H         -0.41870        3.46371        4.13484
H          1.17429        2.14848        5.40433
H          3.37441        2.93769        5.51644
H          3.81482        6.03262        1.99362
H          4.66161        4.56873        1.37242
H          3.11128        5.07915        0.67297

--Link1--
%chk=JID_3065.chk
%mem=8GB
%nprocshared=4
# B3LYP/6-311++G(d,p) empiricaldispersion=gd3bj scf=xqc pop=npa geom=check

CID_10329991_JID_3065_Energie_neutraal

0 1

--Link1--
%chk=JID_3065.chk
%mem=8GB
%nprocshared=4
# B3LYP/6-311++G(d,p) empiricaldispersion=gd3bj scf=xqc pop=npa geom=check

CID_10329991_JID_3065_Energie_kation

1 2

--Link1--
%chk=JID_3065.chk
%mem=8GB
%nprocshared=4
# B3LYP/6-311++G(d,p) empiricaldispersion=gd3bj scf=xqc pop=npa geom=check

CID_10329991_JID_3065_Energie_anion

-1 2
