%chk=JID_8027.chk
%mem=8GB
%nprocshared=4
# opt freq B3LYP/6-31G(d) empiricaldispersion=gd3bj scf=xqc

CID_81632780_JID_8027_neutraal

0 1
C          0.70300        1.24700       -0.25500
C         -0.35050        0.79155        0.75974
C         -1.21450       -0.16181       -0.01735
C         -0.44256       -0.62407       -1.20438
C          0.90633        0.03785       -1.17309
C         -0.84529       -1.62421       -0.14187
C         -1.89698       -2.68922       -0.43349
C         -3.06378       -2.68162       -1.17636
C         -3.57591       -4.00192       -1.04525
N         -2.79044       -4.75495       -0.28030
O         -1.74722       -3.94110        0.10093
N         -4.71497       -4.43389       -1.61526
C         -3.63744       -1.57551       -1.90305
C         -4.56069       -0.72837       -1.29977
N         -5.17461        0.29711       -1.93628
C         -4.85993        0.47661       -3.23786
C         -3.96957       -0.32630       -3.93373
C         -3.35573       -1.37603       -3.25476
H          1.63074        1.58003        0.21848
H          0.30246        2.08333       -0.84164
H          0.12016        0.28183        1.60774
H         -0.92256        1.64192        1.14322
H         -2.22523        0.18676       -0.15067
H         -0.90807       -0.61122       -2.17600
H          1.23218        0.34948       -2.17012
H          1.66014       -0.64195       -0.76060
H         -0.05547       -1.99146        0.50856
H         -5.40424       -3.78856       -1.98301
H         -5.09154       -5.32423       -1.30837
H         -4.84248       -0.85019       -0.25680
H         -5.36305        1.30726       -3.72528
H         -3.76228       -0.14199       -4.98205
H         -2.66380       -2.03029       -3.77944

--Link1--
%chk=JID_8027.chk
%mem=8GB
%nprocshared=4
# B3LYP/6-311++G(d,p) empiricaldispersion=gd3bj scf=xqc pop=npa geom=check

CID_81632780_JID_8027_Energie_neutraal

0 1

--Link1--
%chk=JID_8027.chk
%mem=8GB
%nprocshared=4
# B3LYP/6-311++G(d,p) empiricaldispersion=gd3bj scf=xqc pop=npa geom=check

CID_81632780_JID_8027_Energie_kation

1 2

--Link1--
%chk=JID_8027.chk
%mem=8GB
%nprocshared=4
# B3LYP/6-311++G(d,p) empiricaldispersion=gd3bj scf=xqc pop=npa geom=check

CID_81632780_JID_8027_Energie_anion

-1 2
