%chk=JID_10969.chk
%mem=8GB
%nprocshared=4
# opt freq B3LYP/6-31G(d) empiricaldispersion=gd3bj scf=xqc

CID_43463989_JID_10969_neutraal

0 1
C          2.26400        0.65900       -0.31200
C          2.25706       -0.52951        0.63528
O          1.18733       -1.42658        0.31449
C          0.01482       -0.74612        0.10170
C         -0.04187        0.63226       -0.11696
O          1.06972        1.43403       -0.16020
C         -1.27204        1.25627       -0.29820
C         -2.44608        0.49780       -0.29492
C         -2.40726       -0.89525       -0.10058
C         -1.15535       -1.50587        0.09722
C         -3.69938       -1.69663       -0.13730
C         -3.81400       -2.53439       -1.37903
C         -3.20362       -3.69950       -1.81712
C         -3.73815       -3.98935       -3.09854
C         -4.63977       -2.98431       -3.35245
O         -4.70742       -2.09899       -2.32329
N         -5.48550       -2.72698       -4.47497
O         -6.21558       -1.72866       -4.43443
O         -5.41881       -3.53971       -5.40762
N         -3.87026       -2.51365        1.06805
H          3.11378        1.31284       -0.09227
H          2.34105        0.33830       -1.35837
H          3.19447       -1.08777        0.54834
H          2.14409       -0.21122        1.67906
H         -1.31823        2.33036       -0.45547
H         -3.39660        1.00524       -0.45048
H         -1.07927       -2.57685        0.25910
H         -4.53778       -0.98760       -0.13444
H         -2.45462       -4.26493       -1.27893
H         -3.49534       -4.81690       -3.75130
H         -4.76654       -2.99274        1.00867
H         -3.15621       -3.23514        1.09589

--Link1--
%chk=JID_10969.chk
%mem=8GB
%nprocshared=4
# B3LYP/6-311++G(d,p) empiricaldispersion=gd3bj scf=xqc pop=npa geom=check

CID_43463989_JID_10969_Energie_neutraal

0 1

--Link1--
%chk=JID_10969.chk
%mem=8GB
%nprocshared=4
# B3LYP/6-311++G(d,p) empiricaldispersion=gd3bj scf=xqc pop=npa geom=check

CID_43463989_JID_10969_Energie_kation

1 2

--Link1--
%chk=JID_10969.chk
%mem=8GB
%nprocshared=4
# B3LYP/6-311++G(d,p) empiricaldispersion=gd3bj scf=xqc pop=npa geom=check

CID_43463989_JID_10969_Energie_anion

-1 2
