%chk=JID_10642.chk
%mem=8GB
%nprocshared=4
# opt freq B3LYP/6-31G(d) empiricaldispersion=gd3bj scf=xqc

CID_62199932_JID_10642_neutraal

0 1
C          1.05293        0.06743       -0.05150
C          0.24532       -0.90612        0.80813
C          0.50373       -0.62735        2.29056
C         -1.26659       -0.82500        0.51934
N         -1.61255       -1.16976       -0.86605
C         -1.68521       -2.60165       -1.20540
C         -2.95837       -3.29347       -0.70496
C         -4.23671       -2.92408       -1.45610
N         -4.23463       -3.42593       -2.82650
C         -1.91573       -0.11414       -1.73257
O         -2.01361        1.05740       -1.37211
C         -2.13213       -0.37852       -3.16934
C         -1.09710       -0.89532       -3.96044
C         -1.35153       -1.08946       -5.30645
C         -2.58632       -0.76921       -5.85289
C         -3.61084       -0.23756       -5.09601
C         -3.37230       -0.02360       -3.73692
O         -2.67921       -1.03858       -7.19327
C         -1.30772       -1.28006       -7.58844
C         -0.49334       -1.68059       -6.35693
H          0.71232        1.09881        0.08891
H          0.96916       -0.17882       -1.11451
H          2.11596        0.02503        0.20927
H          0.60189       -1.92026        0.59231
H          0.18175        0.38247        2.56738
H         -0.03748       -1.34089        2.92081
H          1.56985       -0.71843        2.52395
H         -1.81012       -1.50317        1.18583
H         -1.62628        0.18315        0.75641
H         -1.58369       -2.75867       -2.27898
H         -0.81588       -3.08749       -0.74875
H         -2.81014       -4.37907       -0.77702
H         -3.10964       -3.08096        0.35917
H         -5.08650       -3.37765       -0.93354
H         -4.40030       -1.84225       -1.44804
H         -5.14726       -3.24931       -3.24779
H         -3.57546       -2.89420       -3.39559
H         -0.13071       -1.13499       -3.52898
H         -4.56220        0.01951       -5.54842
H         -4.14582        0.41870       -3.11270
H         -1.28451       -2.05928       -8.35731
H         -0.92098       -0.35429       -8.03362
H          0.51867       -1.26914       -6.38636
H         -0.45457       -2.76893       -6.24598

--Link1--
%chk=JID_10642.chk
%mem=8GB
%nprocshared=4
# B3LYP/6-311++G(d,p) empiricaldispersion=gd3bj scf=xqc pop=npa geom=check

CID_62199932_JID_10642_Energie_neutraal

0 1

--Link1--
%chk=JID_10642.chk
%mem=8GB
%nprocshared=4
# B3LYP/6-311++G(d,p) empiricaldispersion=gd3bj scf=xqc pop=npa geom=check

CID_62199932_JID_10642_Energie_kation

1 2

--Link1--
%chk=JID_10642.chk
%mem=8GB
%nprocshared=4
# B3LYP/6-311++G(d,p) empiricaldispersion=gd3bj scf=xqc pop=npa geom=check

CID_62199932_JID_10642_Energie_anion

-1 2
