%chk=JID_10390.chk
%mem=8GB
%nprocshared=4
# opt freq B3LYP/6-31G(d) empiricaldispersion=gd3bj scf=xqc

CID_61762146_JID_10390_neutraal

0 1
C          1.04449        0.01070       -0.08892
C          1.96989        1.21567       -0.06641
C          2.11313        1.91479       -1.42448
C          2.76100        1.00569       -2.49606
N          3.12558        1.67443       -3.75458
C          3.71399        2.99761       -3.52604
C          3.05619        3.83136       -2.41635
O          2.92851        3.07971       -1.20545
C          2.15590        1.55267       -4.84737
C          0.75939        2.21676       -4.77326
C          0.75554        3.67396       -5.08670
C          1.35617        4.45237       -6.05916
C          0.95421        5.79256       -5.81862
C          1.20938        7.04137       -6.41168
C          0.60386        8.18191       -5.86373
C         -0.23875        8.08753       -4.75254
C         -0.50530        6.85380       -4.14984
C          0.11192        5.74128       -4.71551
O         -0.01261        4.46013       -4.27514
O         -0.10513        1.59263       -5.73405
H          0.06154        0.27736       -0.48971
H          0.90332       -0.37303        0.92665
H          1.45755       -0.80180       -0.69355
H          1.59070        1.94156        0.66440
H          2.95765        0.91616        0.30574
H          1.12105        2.24869       -1.74921
H          3.69698        0.60914       -2.08052
H          2.12939        0.13314       -2.69718
H          4.75319        2.81828       -3.22000
H          3.77854        3.57629       -4.45391
H          3.68021        4.70377       -2.19660
H          2.07132        4.20304       -2.70546
H          2.65196        1.86187       -5.77790
H          1.99393        0.47668       -5.00675
H          0.30547        2.02854       -3.79723
H          2.01416        4.10290       -6.84218
H          1.86137        7.12749       -7.27558
H          0.79309        9.15522       -6.31213
H         -0.69653        8.98802       -4.34798
H         -1.15530        6.76114       -3.28851
H          0.15161        1.91178       -6.61521

--Link1--
%chk=JID_10390.chk
%mem=8GB
%nprocshared=4
# B3LYP/6-311++G(d,p) empiricaldispersion=gd3bj scf=xqc pop=npa geom=check

CID_61762146_JID_10390_Energie_neutraal

0 1

--Link1--
%chk=JID_10390.chk
%mem=8GB
%nprocshared=4
# B3LYP/6-311++G(d,p) empiricaldispersion=gd3bj scf=xqc pop=npa geom=check

CID_61762146_JID_10390_Energie_kation

1 2

--Link1--
%chk=JID_10390.chk
%mem=8GB
%nprocshared=4
# B3LYP/6-311++G(d,p) empiricaldispersion=gd3bj scf=xqc pop=npa geom=check

CID_61762146_JID_10390_Energie_anion

-1 2
