%chk=JID_7749.chk
%mem=8GB
%nprocshared=4
# opt freq B3LYP/6-31G(d) empiricaldispersion=gd3bj scf=xqc

CID_66929023_JID_7749_neutraal

0 1
C          0.94016        0.07280        0.03345
C          0.79004       -0.33806       -1.42240
C          1.23634       -1.74120       -1.64937
C          2.41575       -2.29489       -2.10099
C          2.23648       -3.69838       -2.07580
C          0.95565       -3.92063       -1.61478
O          0.33932       -2.73044       -1.35518
C          0.16235       -5.14847       -1.37025
N          0.25927       -5.54849        0.02815
C         -0.50303       -5.07937        1.06628
C         -0.08287       -5.75239        2.19015
C          0.93036       -6.62137        1.72740
N          1.13157       -6.51203        0.40164
N          1.72059       -7.56834        2.49476
O          1.47256       -7.62606        3.70941
O          2.57502       -8.24681        1.90613
O         -0.58393       -0.24782       -1.79509
H          0.34724       -0.57244        0.69232
H          0.57311        1.09421        0.18117
H          1.98495        0.02599        0.35731
H          1.35246        0.34825       -2.06364
H          3.29953       -1.75071       -2.40517
H          2.95410       -4.45855       -2.35537
H         -0.89804       -4.99003       -1.59420
H          0.51832       -5.98288       -1.98420
H         -1.25201       -4.31277        0.91771
H         -0.44917       -5.63763        3.20103
H         -1.00240       -1.07000       -1.48119

--Link1--
%chk=JID_7749.chk
%mem=8GB
%nprocshared=4
# B3LYP/6-311++G(d,p) empiricaldispersion=gd3bj scf=xqc pop=npa geom=check

CID_66929023_JID_7749_Energie_neutraal

0 1

--Link1--
%chk=JID_7749.chk
%mem=8GB
%nprocshared=4
# B3LYP/6-311++G(d,p) empiricaldispersion=gd3bj scf=xqc pop=npa geom=check

CID_66929023_JID_7749_Energie_kation

1 2

--Link1--
%chk=JID_7749.chk
%mem=8GB
%nprocshared=4
# B3LYP/6-311++G(d,p) empiricaldispersion=gd3bj scf=xqc pop=npa geom=check

CID_66929023_JID_7749_Energie_anion

-1 2
