%chk=JID_9871.chk
%mem=8GB
%nprocshared=4
# opt freq B3LYP/6-31G(d) empiricaldispersion=gd3bj scf=xqc

CID_2919324_JID_9871_neutraal

0 1
C          1.04469       -0.06712       -0.05914
C          0.13080       -0.35543        0.87794
C         -1.32588       -0.57196        0.60482
N         -1.79600       -1.78224        1.27006
C         -1.78370       -3.08506        0.88789
N         -2.41461       -3.87276        1.72334
N         -2.87885       -3.06570        2.70239
C         -2.50135       -1.76314        2.46019
S         -2.88527       -0.51413        3.48270
C         -1.04003       -3.71630       -0.31339
C         -1.58261       -5.16929       -0.53305
C         -0.83645       -5.89434       -1.66270
C          0.65544       -5.97307       -1.30554
C          1.22353       -4.55764       -1.12215
C          0.46711       -3.84564        0.01574
C          1.04027       -3.77220       -2.43139
C         -0.45364       -3.69164       -2.79319
C         -1.01478       -5.10722       -2.96591
C         -1.20088       -2.97058       -1.65558
H          0.78574        0.02100       -1.10972
H          2.08464        0.09022        0.21293
H          0.44881       -0.41382        1.91753
H         -1.87184        0.29739        0.98448
H         -1.56048       -0.61780       -0.45726
H         -3.39835       -3.41472        3.49837
H         -1.48027       -5.76450        0.38427
H         -2.65633       -5.13550       -0.76241
H         -1.24059       -6.90559       -1.78405
H          1.20355       -6.49832       -2.09735
H          0.79162       -6.55407       -0.38513
H          2.28901       -4.61782       -0.87334
H          0.91575       -2.86389        0.18150
H          0.60283       -4.39989        0.95402
H          1.45652       -2.76296       -2.32409
H          1.59544       -4.26012       -3.24199
H         -0.57552       -3.13033       -3.72652
H         -0.49928       -5.61870       -3.78794
H         -2.07693       -5.05998       -3.23562
H         -2.26302       -2.85649       -1.90468
H         -0.77560       -1.96913       -1.60517

--Link1--
%chk=JID_9871.chk
%mem=8GB
%nprocshared=4
# B3LYP/6-311++G(d,p) empiricaldispersion=gd3bj scf=xqc pop=npa geom=check

CID_2919324_JID_9871_Energie_neutraal

0 1

--Link1--
%chk=JID_9871.chk
%mem=8GB
%nprocshared=4
# B3LYP/6-311++G(d,p) empiricaldispersion=gd3bj scf=xqc pop=npa geom=check

CID_2919324_JID_9871_Energie_kation

1 2

--Link1--
%chk=JID_9871.chk
%mem=8GB
%nprocshared=4
# B3LYP/6-311++G(d,p) empiricaldispersion=gd3bj scf=xqc pop=npa geom=check

CID_2919324_JID_9871_Energie_anion

-1 2
