%chk=JID_5947.chk
%mem=8GB
%nprocshared=4
# opt freq B3LYP/6-31G(d) empiricaldispersion=gd3bj scf=xqc

CID_154070342_JID_5947_neutraal

0 1
C          0.91843        0.05068        0.02789
C          1.34225        1.51177        0.05156
C          1.15882        2.23462       -1.28715
C         -0.26550        2.19588       -1.84161
O         -1.15785        2.83612       -0.91962
C         -2.17905        2.05676       -0.44801
C         -2.95355        1.26076       -1.29887
C         -3.95026        0.43391       -0.77689
C         -4.19327        0.41040        0.59435
C         -3.45908        1.23722        1.44402
C         -2.46745        2.08470        0.92538
C         -1.73781        2.94267        1.89055
O         -1.55899        2.59464        3.05100
O         -1.42545        4.12288        1.28669
O         -0.78344        4.94960        2.23173
H         -0.15858       -0.06300       -0.11575
H          1.17389       -0.42735        0.97920
H          1.43311       -0.49218       -0.77119
H          0.79341        2.03552        0.84052
H          2.40215        1.56483        0.32867
H          1.45703        3.28069       -1.14455
H          1.84132        1.80312       -2.02886
H         -0.30334        2.76428       -2.77766
H         -0.53592        1.16115       -2.07924
H         -2.79158        1.27050       -2.37375
H         -4.53493       -0.19796       -1.44208
H         -4.95976       -0.24506        1.00201
H         -3.66249        1.21915        2.51422

--Link1--
%chk=JID_5947.chk
%mem=8GB
%nprocshared=4
# B3LYP/6-311++G(d,p) empiricaldispersion=gd3bj scf=xqc pop=npa geom=check

CID_154070342_JID_5947_Energie_neutraal

0 1

--Link1--
%chk=JID_5947.chk
%mem=8GB
%nprocshared=4
# B3LYP/6-311++G(d,p) empiricaldispersion=gd3bj scf=xqc pop=npa geom=check

CID_154070342_JID_5947_Energie_kation

1 2

--Link1--
%chk=JID_5947.chk
%mem=8GB
%nprocshared=4
# B3LYP/6-311++G(d,p) empiricaldispersion=gd3bj scf=xqc pop=npa geom=check

CID_154070342_JID_5947_Energie_anion

-1 2
