%chk=JID_6672.chk
%mem=8GB
%nprocshared=4
# opt freq B3LYP/6-31G(d) empiricaldispersion=gd3bj scf=xqc

CID_63596298_JID_6672_neutraal

0 1
C          2.49200        0.00400       -0.01400
C          1.03116       -0.08270        0.34036
C          0.52368       -1.37474        0.58926
C         -0.81041       -1.57620        0.93094
C         -1.66195       -0.48732        1.03015
C         -1.18085        0.79669        0.76977
C          0.15694        1.03022        0.39468
C          0.59472        2.46341        0.12179
N          0.36277        3.04652       -1.20932
C          0.85401        2.22072       -2.32507
C         -0.20372        1.29119       -2.95972
N         -1.43199        1.99898       -3.35863
C         -1.95417        2.74351       -2.19702
C         -0.92762        3.71486       -1.52028
C         -1.60289        4.39750       -0.30995
C         -0.60959        4.87703       -2.50509
H          3.06126       -0.76160        0.52635
H          2.63108       -0.16590       -1.08541
H          2.94173        0.95859        0.26411
H          1.18025       -2.24061        0.52284
H         -1.17940       -2.57942        1.12447
H         -2.70284       -0.63169        1.30669
H         -1.87645        1.62312        0.86728
H          0.18210        3.10208        0.91180
H          1.66891        2.54971        0.31475
H          1.22791        2.89297       -3.10779
H          1.73901        1.64724       -2.03944
H         -0.46497        0.47317       -2.28123
H          0.22740        0.82137       -3.85113
H         -1.18683        2.67030       -4.08494
H         -2.33505        2.02118       -1.46764
H         -2.82949        3.31237       -2.53468
H         -0.91676        5.09047        0.19105
H         -2.47540        4.98148       -0.62774
H         -1.96537        3.68412        0.43145
H         -0.18177        4.53814       -3.45324
H         -1.51842        5.43794       -2.75473
H          0.10014        5.58510       -2.05992

--Link1--
%chk=JID_6672.chk
%mem=8GB
%nprocshared=4
# B3LYP/6-311++G(d,p) empiricaldispersion=gd3bj scf=xqc pop=npa geom=check

CID_63596298_JID_6672_Energie_neutraal

0 1

--Link1--
%chk=JID_6672.chk
%mem=8GB
%nprocshared=4
# B3LYP/6-311++G(d,p) empiricaldispersion=gd3bj scf=xqc pop=npa geom=check

CID_63596298_JID_6672_Energie_kation

1 2

--Link1--
%chk=JID_6672.chk
%mem=8GB
%nprocshared=4
# B3LYP/6-311++G(d,p) empiricaldispersion=gd3bj scf=xqc pop=npa geom=check

CID_63596298_JID_6672_Energie_anion

-1 2
