%chk=JID_8402.chk
%mem=8GB
%nprocshared=4
# opt freq B3LYP/6-31G(d) empiricaldispersion=gd3bj scf=xqc

CID_129237854_JID_8402_neutraal

0 1
C          0.95051       -0.02286        0.08383
C          0.06405       -0.36153        1.27817
N          0.37018        0.44628        2.43850
N         -1.35702       -0.25267        0.97454
C         -2.14881       -1.46659        0.79371
N         -3.56350       -1.02693        0.74229
C         -3.57087        0.37958        0.78609
C         -4.74462        1.02442        0.72782
C         -4.96523        2.44654        0.91801
C         -6.01772        3.17058        0.48323
C         -7.11004        2.59650       -0.39782
N         -6.19205        4.51155        0.79031
C         -5.26381        5.40998        1.44135
C         -2.19985        0.84310        0.90033
C         -1.65883        2.06025        0.83792
C         -4.65724       -1.86366        0.87998
C         -4.45876       -3.18261        0.83539
N         -1.79061       -2.09366       -0.44675
H          0.83894        1.01447       -0.24346
H          0.69882       -0.65986       -0.77067
H          2.00700       -0.18582        0.32341
H          0.27294       -1.40487        1.54572
H         -0.09124        0.07465        3.26627
H          1.37091        0.41524        2.63576
H         -1.99251       -2.14701        1.63947
H         -5.66863        0.48503        0.56473
H         -4.24002        2.95154        1.54946
H         -8.02567        2.45510        0.18582
H         -7.33180        3.28313       -1.22303
H         -6.84283        1.64162       -0.85783
H         -6.94702        4.97689        0.28775
H         -4.35309        5.52450        0.84551
H         -5.72326        6.39657        1.55541
H         -4.99959        5.04688        2.43933
H         -2.25697        2.95148        0.69325
H         -0.59660        2.25236        0.91415
H         -5.65569       -1.46587        1.02650
H         -5.31665       -3.84422        0.94725
H         -3.51157       -3.68237        0.69173
H         -1.09325       -2.82622       -0.51036
H         -2.39041       -1.98034       -1.25692

--Link1--
%chk=JID_8402.chk
%mem=8GB
%nprocshared=4
# B3LYP/6-311++G(d,p) empiricaldispersion=gd3bj scf=xqc pop=npa geom=check

CID_129237854_JID_8402_Energie_neutraal

0 1

--Link1--
%chk=JID_8402.chk
%mem=8GB
%nprocshared=4
# B3LYP/6-311++G(d,p) empiricaldispersion=gd3bj scf=xqc pop=npa geom=check

CID_129237854_JID_8402_Energie_kation

1 2

--Link1--
%chk=JID_8402.chk
%mem=8GB
%nprocshared=4
# B3LYP/6-311++G(d,p) empiricaldispersion=gd3bj scf=xqc pop=npa geom=check

CID_129237854_JID_8402_Energie_anion

-1 2
