%chk=JID_68.chk
%mem=8GB
%nprocshared=4
# opt freq B3LYP/6-31G(d) empiricaldispersion=gd3bj scf=xqc

CID_148522975_JID_68_neutraal

0 1
C          0.99030        0.09588        0.02671
N          0.57673        0.82438       -1.16403
C          0.53164        0.04110       -2.40682
C          0.20057        0.89282       -3.60286
C          0.04692        2.23183       -3.56932
C          0.24721        2.91066       -2.29936
C          0.49801        2.20502       -1.18977
C         -0.25005        3.07742       -4.73656
C         -1.38658        2.71097       -5.66003
C         -1.51584        3.89966       -4.75617
H          0.62658       -0.93697        0.00235
H          0.59030        0.56320        0.93312
H          2.08268        0.07670        0.09762
H          1.50118       -0.44240       -2.57428
H         -0.22763       -0.74355       -2.31114
H          0.08624        0.36603       -4.54445
H          0.19339        3.99298       -2.26584
H          0.64928        2.69772       -0.23338
H          0.63091        3.51690       -5.19641
H         -1.25175        2.89038       -6.72040
H         -1.99586        1.84327       -5.43378
H         -2.20543        3.82372       -3.92257
H         -1.46924        4.88642       -5.20184

--Link1--
%chk=JID_68.chk
%mem=8GB
%nprocshared=4
# B3LYP/6-311++G(d,p) empiricaldispersion=gd3bj scf=xqc pop=npa geom=check

CID_148522975_JID_68_Energie_neutraal

0 1

--Link1--
%chk=JID_68.chk
%mem=8GB
%nprocshared=4
# B3LYP/6-311++G(d,p) empiricaldispersion=gd3bj scf=xqc pop=npa geom=check

CID_148522975_JID_68_Energie_kation

1 2

--Link1--
%chk=JID_68.chk
%mem=8GB
%nprocshared=4
# B3LYP/6-311++G(d,p) empiricaldispersion=gd3bj scf=xqc pop=npa geom=check

CID_148522975_JID_68_Energie_anion

-1 2
