%chk=JID_145.chk
%mem=8GB
%nprocshared=4
# opt freq B3LYP/6-31G(d) empiricaldispersion=gd3bj scf=xqc

CID_144132625_JID_145_neutraal

0 1
C          1.09982       -0.00509        0.00331
C          1.25863       -0.72456        1.30605
C          0.68248       -0.40407        2.48213
C          0.92624       -1.21391        3.72867
C         -0.20343        0.75191        2.65273
C          0.31594        1.96610        2.96625
C         -0.50386        3.22822        3.09528
C          1.78724        2.22930        3.20392
N         -1.55739        0.53500        2.44918
C         -2.21595       -0.73251        2.22342
H          0.42048        0.84949        0.05551
H          0.71077       -0.69545       -0.75173
H          2.07429        0.35870       -0.33710
H          1.91054       -1.59445        1.26502
H          1.37231       -0.59534        4.51479
H         -0.00846       -1.63468        4.11243
H          1.60943       -2.05015        3.54415
H         -0.52944        3.55235        4.14084
H         -0.05485        4.03014        2.49844
H         -1.53442        3.12887        2.74772
H          2.41631        1.33709        3.16514
H          2.16831        2.92838        2.45163
H          1.92974        2.67715        4.19352
H         -2.16069        1.25392        2.82984
H         -2.19736       -1.34851        3.12715
H         -3.26363       -0.55558        1.96045
H         -1.75927       -1.28462        1.39648

--Link1--
%chk=JID_145.chk
%mem=8GB
%nprocshared=4
# B3LYP/6-311++G(d,p) empiricaldispersion=gd3bj scf=xqc pop=npa geom=check

CID_144132625_JID_145_Energie_neutraal

0 1

--Link1--
%chk=JID_145.chk
%mem=8GB
%nprocshared=4
# B3LYP/6-311++G(d,p) empiricaldispersion=gd3bj scf=xqc pop=npa geom=check

CID_144132625_JID_145_Energie_kation

1 2

--Link1--
%chk=JID_145.chk
%mem=8GB
%nprocshared=4
# B3LYP/6-311++G(d,p) empiricaldispersion=gd3bj scf=xqc pop=npa geom=check

CID_144132625_JID_145_Energie_anion

-1 2
