%chk=JID_7057.chk
%mem=8GB
%nprocshared=4
# opt freq B3LYP/6-31G(d) empiricaldispersion=gd3bj scf=xqc

CID_154102123_JID_7057_neutraal

0 1
C          1.03527        0.05918        0.07248
C          0.59356        1.47313        0.19161
N         -0.65061        1.92333        0.24039
C         -0.76918        3.30298        0.36675
C          0.46891        3.93611        0.39722
S          1.71903        2.75948        0.28349
C          0.57651        5.32801        0.49905
C         -0.60630        6.07228        0.58104
C         -1.86397        5.46145        0.58225
C         -1.95184        4.06999        0.45178
N         -2.97692        6.31629        0.65249
C         -4.30915        6.10973        0.87058
O         -5.11107        6.99425        0.57844
C         -4.80307        4.85679        1.50155
C         -4.32519        4.48704        2.70135
C         -5.93697        4.17525        0.80345
C         -1.82318        1.05704        0.17742
H          0.67462       -0.37359       -0.86599
H          0.64266       -0.53361        0.90470
H          2.12594       -0.03576        0.08462
H          1.54476        5.82389        0.51386
H         -0.52135        7.15705        0.66270
H         -2.91429        3.58270        0.37676
H         -2.81049        7.29777        0.44566
H         -4.72851        3.62736        3.22795
H         -3.56414        5.06718        3.21668
H         -6.79560        4.84728        0.70544
H         -5.62879        3.85691       -0.19781
H         -6.27082        3.28499        1.34686
H         -2.38817        1.14817        1.11041
H         -2.45124        1.35879       -0.66673
H         -1.55377        0.00753        0.03962

--Link1--
%chk=JID_7057.chk
%mem=8GB
%nprocshared=4
# B3LYP/6-311++G(d,p) empiricaldispersion=gd3bj scf=xqc pop=npa geom=check

CID_154102123_JID_7057_Energie_neutraal

0 1

--Link1--
%chk=JID_7057.chk
%mem=8GB
%nprocshared=4
# B3LYP/6-311++G(d,p) empiricaldispersion=gd3bj scf=xqc pop=npa geom=check

CID_154102123_JID_7057_Energie_kation

1 2

--Link1--
%chk=JID_7057.chk
%mem=8GB
%nprocshared=4
# B3LYP/6-311++G(d,p) empiricaldispersion=gd3bj scf=xqc pop=npa geom=check

CID_154102123_JID_7057_Energie_anion

-1 2
