%chk=JID_3086.chk
%mem=8GB
%nprocshared=4
# opt freq B3LYP/6-31G(d) empiricaldispersion=gd3bj scf=xqc

CID_116588333_JID_3086_neutraal

0 1
C          1.06440       -0.06904       -0.03296
C         -0.13146       -0.17115       -0.08532
C         -1.56863       -0.32162       -0.15557
O         -2.03819       -1.21638       -0.84896
C         -2.42365        0.65232        0.62534
C         -2.36974        0.51247        2.15501
C         -2.50687       -0.93944        2.66125
C         -1.96935       -1.15175        4.08709
C         -0.48756       -1.53261        4.09105
C          0.24986       -0.20762        4.22115
C         -0.85641        0.84508        4.22433
C         -1.21626        1.30904        2.80178
N         -1.99473        0.12586        4.81765
H          2.12611        0.01223        0.00417
H         -2.16720        1.67258        0.31561
H         -3.45889        0.48734        0.29782
H         -3.27886        1.02367        2.51197
H         -3.57639       -1.18999        2.64828
H         -2.02865       -1.65425        1.98402
H         -2.56434       -1.92003        4.59230
H         -0.18042       -2.07967        3.19397
H         -0.25564       -2.16303        4.95800
H          0.98161       -0.06568        3.41977
H          0.79568       -0.18863        5.17264
H         -0.56297        1.70907        4.83008
H         -0.32267        1.30889        2.17214
H         -1.53629        2.35918        2.85206
H         -1.78953       -0.05760        5.80129

--Link1--
%chk=JID_3086.chk
%mem=8GB
%nprocshared=4
# B3LYP/6-311++G(d,p) empiricaldispersion=gd3bj scf=xqc pop=npa geom=check

CID_116588333_JID_3086_Energie_neutraal

0 1

--Link1--
%chk=JID_3086.chk
%mem=8GB
%nprocshared=4
# B3LYP/6-311++G(d,p) empiricaldispersion=gd3bj scf=xqc pop=npa geom=check

CID_116588333_JID_3086_Energie_kation

1 2

--Link1--
%chk=JID_3086.chk
%mem=8GB
%nprocshared=4
# B3LYP/6-311++G(d,p) empiricaldispersion=gd3bj scf=xqc pop=npa geom=check

CID_116588333_JID_3086_Energie_anion

-1 2
