%chk=JID_7668.chk
%mem=8GB
%nprocshared=4
# opt freq B3LYP/6-31G(d) empiricaldispersion=gd3bj scf=xqc

CID_63218864_JID_7668_neutraal

0 1
C          0.92392        0.04535       -0.04643
C          0.78782       -0.93928        1.10502
C          1.24818       -0.37158        2.45120
N          0.45553        0.77544        2.89539
C         -0.84359        0.50147        3.52248
C         -0.78399        0.06281        4.98128
O         -1.75929       -0.16317        5.68444
O          0.45320       -0.10857        5.48673
C          0.99815        2.04447        2.76649
O          2.10007        2.25623        2.26352
N          0.15597        3.08493        3.13295
C         -0.32362        3.89804        2.01911
C         -0.01818        5.34023        2.38331
C         -0.14095        5.31797        3.89687
C          0.50661        3.96805        4.27374
C         -0.11346        3.44686        5.57452
C          2.02054        4.15701        4.48786
H          0.26256        0.90708        0.08505
H          0.65387       -0.44012       -0.98971
H          1.95299        0.40746       -0.13488
H         -0.25383       -1.27265        1.16753
H          1.39033       -1.82718        0.87928
H          1.18159       -1.15470        3.21424
H          2.30658       -0.09542        2.38280
H         -1.48121        1.38826        3.47910
H         -1.33400       -0.29522        2.95484
H          0.30345       -0.38421        6.41406
H          0.12137        3.60645        1.06209
H         -1.40673        3.74135        1.95952
H         -0.70370        6.04798        1.90932
H          1.00343        5.60213        2.08507
H         -1.20359        5.33704        4.17140
H          0.34205        6.17998        4.36781
H          0.36686        2.51921        5.89723
H         -0.00272        4.17594        6.38497
H         -1.18305        3.24116        5.45210
H          2.51956        4.52893        3.58713
H          2.21448        4.87409        5.29378
H          2.50320        3.21431        4.77015

--Link1--
%chk=JID_7668.chk
%mem=8GB
%nprocshared=4
# B3LYP/6-311++G(d,p) empiricaldispersion=gd3bj scf=xqc pop=npa geom=check

CID_63218864_JID_7668_Energie_neutraal

0 1

--Link1--
%chk=JID_7668.chk
%mem=8GB
%nprocshared=4
# B3LYP/6-311++G(d,p) empiricaldispersion=gd3bj scf=xqc pop=npa geom=check

CID_63218864_JID_7668_Energie_kation

1 2

--Link1--
%chk=JID_7668.chk
%mem=8GB
%nprocshared=4
# B3LYP/6-311++G(d,p) empiricaldispersion=gd3bj scf=xqc pop=npa geom=check

CID_63218864_JID_7668_Energie_anion

-1 2
