%chk=JID_7789.chk
%mem=8GB
%nprocshared=4
# opt freq B3LYP/6-31G(d) empiricaldispersion=gd3bj scf=xqc

CID_107044986_JID_7789_neutraal

0 1
C          2.13400        0.09700        0.02900
N          0.70989       -0.08379        0.08386
N          0.14768       -1.29802        0.23951
C         -1.14600       -0.96941        0.08375
N         -1.34337        0.37122       -0.12820
N         -0.14193        0.93003       -0.13497
C         -2.27374       -1.94127        0.11943
N         -2.57182       -2.62219       -1.15088
C         -1.61452       -3.66275       -1.54880
C         -0.50405       -3.21726       -2.51227
O         -1.03880       -2.50778       -3.63563
C         -1.74548       -1.33253       -3.19265
C         -2.92733       -1.74135       -2.27600
C         -2.22147       -0.59455       -4.43782
C         -2.54863        0.83087       -4.12035
O         -1.77612        1.77289       -4.15235
O         -3.83142        1.00521       -3.75261
H          2.60739       -0.60364        0.72120
H          2.46366       -0.09687       -0.99431
H          2.37714        1.12204        0.31943
H         -2.08840       -2.68857        0.90139
H         -3.17841       -1.41150        0.44471
H         -2.20215       -4.43106       -2.06839
H         -1.17927       -4.16446       -0.67653
H          0.24963       -2.59588       -2.02178
H          0.01389       -4.09997       -2.90180
H         -1.03540       -0.69613       -2.65355
H         -3.64642       -2.30579       -2.88458
H         -3.46916       -0.85991       -1.91523
H         -1.43947       -0.58975       -5.20753
H         -3.08206       -1.08596       -4.90606
H         -3.89302        1.96540       -3.55963

--Link1--
%chk=JID_7789.chk
%mem=8GB
%nprocshared=4
# B3LYP/6-311++G(d,p) empiricaldispersion=gd3bj scf=xqc pop=npa geom=check

CID_107044986_JID_7789_Energie_neutraal

0 1

--Link1--
%chk=JID_7789.chk
%mem=8GB
%nprocshared=4
# B3LYP/6-311++G(d,p) empiricaldispersion=gd3bj scf=xqc pop=npa geom=check

CID_107044986_JID_7789_Energie_kation

1 2

--Link1--
%chk=JID_7789.chk
%mem=8GB
%nprocshared=4
# B3LYP/6-311++G(d,p) empiricaldispersion=gd3bj scf=xqc pop=npa geom=check

CID_107044986_JID_7789_Energie_anion

-1 2
