%chk=JID_6665.chk
%mem=8GB
%nprocshared=4
# opt freq B3LYP/6-31G(d) empiricaldispersion=gd3bj scf=xqc

CID_69015863_JID_6665_neutraal

0 1
C          1.05821        0.05216       -0.06238
C          0.56204       -1.34624        0.31895
C          0.91359       -1.67293        1.76970
N         -0.87194       -1.52435        0.08527
C         -1.53179       -2.65335       -0.35540
C         -2.88534       -2.34381       -0.31229
C         -2.92376       -1.00841        0.13757
N         -1.71407       -0.51938        0.39674
C         -4.05943       -3.20765       -0.62847
C         -4.22705       -3.48714       -2.09795
O         -4.36663       -4.59294       -2.59962
O         -4.29839       -2.38054       -2.86337
C         -0.84665       -3.91986       -0.75767
C         -0.22925       -3.79206       -2.12841
O          0.96490       -3.69503       -2.36785
O         -1.12908       -3.78335       -3.13047
H          0.63488        0.82547        0.58806
H          0.78514        0.29498       -1.09520
H          2.14893        0.10819        0.01995
H          1.07898       -2.05870       -0.32995
H          0.41828       -0.98715        2.46584
H          0.60162       -2.69035        2.03006
H          1.99409       -1.60166        1.93266
H         -3.78779       -0.37739        0.30426
H         -3.95017       -4.16742       -0.10957
H         -4.98940       -2.75560       -0.26472
H         -4.38475       -2.73017       -3.77413
H         -0.06096       -4.18539       -0.04194
H         -1.54247       -4.76615       -0.77108
H         -0.58738       -3.68345       -3.94070

--Link1--
%chk=JID_6665.chk
%mem=8GB
%nprocshared=4
# B3LYP/6-311++G(d,p) empiricaldispersion=gd3bj scf=xqc pop=npa geom=check

CID_69015863_JID_6665_Energie_neutraal

0 1

--Link1--
%chk=JID_6665.chk
%mem=8GB
%nprocshared=4
# B3LYP/6-311++G(d,p) empiricaldispersion=gd3bj scf=xqc pop=npa geom=check

CID_69015863_JID_6665_Energie_kation

1 2

--Link1--
%chk=JID_6665.chk
%mem=8GB
%nprocshared=4
# B3LYP/6-311++G(d,p) empiricaldispersion=gd3bj scf=xqc pop=npa geom=check

CID_69015863_JID_6665_Energie_anion

-1 2
