%chk=JID_7948.chk
%mem=8GB
%nprocshared=4
# opt freq B3LYP/6-31G(d) empiricaldispersion=gd3bj scf=xqc

CID_140167548_JID_7948_neutraal

0 1
C          0.93334       -0.07454        0.00051
C          0.58091       -0.08281       -1.47912
C          1.01296       -1.36336       -2.13165
C          0.17207       -2.22888       -2.72113
C          0.60926       -3.51439       -3.36297
C          0.01238       -4.69915       -2.66004
C         -0.65974       -5.67920       -3.28287
C         -1.20778       -6.81601       -2.58071
C         -1.77403       -7.85814       -3.21034
C         -2.33803       -9.06441       -2.50215
C         -3.87053       -9.24646       -2.58516
C         -4.54877       -9.02647       -3.94157
C         -4.91757      -10.30977       -4.63069
O         -5.50344      -11.25951       -4.14083
O         -4.54809      -10.32718       -5.92539
O         -1.55785      -10.22064       -2.80728
C         -1.74779      -10.83447       -4.06595
H          0.42935       -0.88914        0.53169
H          0.62282        0.87052        0.45750
H          2.01250       -0.18424        0.15269
H         -0.49778        0.07416       -1.59477
H          1.08233        0.75411       -1.97824
H          2.07974       -1.57928       -2.11119
H         -0.89421       -2.01268       -2.74951
H          0.31766       -3.49350       -4.41973
H          1.70135       -3.60985       -3.33607
H          0.17514       -4.74824       -1.58492
H         -0.79695       -5.63896       -4.36151
H         -1.13480       -6.81466       -1.49462
H         -1.80927       -7.86230       -4.29577
H         -2.14254       -8.92292       -1.42995
H         -4.13154      -10.23090       -2.17829
H         -4.30757       -8.50357       -1.90295
H         -5.49498       -8.49095       -3.79235
H         -3.95164       -8.40527       -4.61331
H         -4.87678      -11.19056       -6.25504
H         -2.62576      -11.48167       -4.03390
H         -1.82548      -10.10767       -4.87784
H         -0.88151      -11.47259       -4.26379

--Link1--
%chk=JID_7948.chk
%mem=8GB
%nprocshared=4
# B3LYP/6-311++G(d,p) empiricaldispersion=gd3bj scf=xqc pop=npa geom=check

CID_140167548_JID_7948_Energie_neutraal

0 1

--Link1--
%chk=JID_7948.chk
%mem=8GB
%nprocshared=4
# B3LYP/6-311++G(d,p) empiricaldispersion=gd3bj scf=xqc pop=npa geom=check

CID_140167548_JID_7948_Energie_kation

1 2

--Link1--
%chk=JID_7948.chk
%mem=8GB
%nprocshared=4
# B3LYP/6-311++G(d,p) empiricaldispersion=gd3bj scf=xqc pop=npa geom=check

CID_140167548_JID_7948_Energie_anion

-1 2
