%chk=JID_5373.chk
%mem=8GB
%nprocshared=4
# opt freq B3LYP/6-31G(d) empiricaldispersion=gd3bj scf=xqc

CID_76952815_JID_5373_neutraal

0 1
C          1.04537       -0.04414       -0.07742
C          0.59844       -0.21416        1.36597
C          0.92638        0.98682        2.25957
C          0.25514        2.30861        1.85422
C         -1.26670        2.24785        1.74555
C          0.72901        3.47797        2.71353
O          1.40430        4.38247        2.21244
N          0.44564        3.58734        4.03652
C         -0.31865        2.74238        4.93577
C          0.53530        2.21745        6.08898
C          0.99191        3.29516        7.07524
C         -0.17109        3.92880        7.82728
N         -0.81408        3.35084        8.80270
O         -0.29158        2.08955        9.10172
N         -0.57575        5.17675        7.43965
H          0.48153        0.74507       -0.58292
H          0.88210       -0.97353       -0.63252
H          2.11080        0.20040       -0.13278
H         -0.47575       -0.42783        1.39479
H          1.10048       -1.09668        1.78111
H          0.65727        0.71645        3.28498
H          2.01478        1.13250        2.27333
H          0.61736        2.55909        0.84678
H         -1.72758        1.70324        2.57286
H         -1.70235        3.25243        1.71910
H         -1.56350        1.73621        0.82350
H          0.84595        4.43583        4.41761
H         -1.16053        3.33796        5.30103
H         -0.73919        1.89442        4.39985
H         -0.04281        1.45260        6.61976
H          1.42352        1.71741        5.68333
H          1.67950        2.85427        7.80638
H          1.55627        4.07859        6.55726
H         -0.81893        1.82601        9.87858
H         -0.39727        5.47803        6.49118
H         -1.48142        5.44625        7.80884

--Link1--
%chk=JID_5373.chk
%mem=8GB
%nprocshared=4
# B3LYP/6-311++G(d,p) empiricaldispersion=gd3bj scf=xqc pop=npa geom=check

CID_76952815_JID_5373_Energie_neutraal

0 1

--Link1--
%chk=JID_5373.chk
%mem=8GB
%nprocshared=4
# B3LYP/6-311++G(d,p) empiricaldispersion=gd3bj scf=xqc pop=npa geom=check

CID_76952815_JID_5373_Energie_kation

1 2

--Link1--
%chk=JID_5373.chk
%mem=8GB
%nprocshared=4
# B3LYP/6-311++G(d,p) empiricaldispersion=gd3bj scf=xqc pop=npa geom=check

CID_76952815_JID_5373_Energie_anion

-1 2
