%chk=JID_7201.chk
%mem=8GB
%nprocshared=4
# opt freq B3LYP/6-31G(d) empiricaldispersion=gd3bj scf=xqc

CID_61642434_JID_7201_neutraal

0 1
C          2.49200        0.00400       -0.01400
C          1.19630        0.44797        0.59713
C          0.53494       -0.47533        1.43321
C         -0.69308       -0.17454        2.01879
C         -1.27796        1.06156        1.78824
C         -0.62532        1.99442        0.98169
C          0.62404        1.71579        0.39348
S          1.23205        3.00303       -0.69043
C          2.94564        3.45605       -0.10085
C          3.16122        3.36533        1.43535
N          2.21263        4.13125        2.25347
C          4.02139        2.84275       -0.98906
C          5.11793        2.13965       -0.49368
N          6.08347        1.57768       -1.26082
C          5.97296        1.73062       -2.59525
C          4.94776        2.43249       -3.20016
C          3.97285        3.00046       -2.38460
H          2.52078       -1.08757       -0.11354
H          2.61312        0.39390       -1.02708
H          3.32996        0.29751        0.62056
H          0.97065       -1.45693        1.61382
H         -1.19581       -0.91101        2.64016
H         -2.24503        1.29897        2.22333
H         -1.11786        2.94877        0.80118
H          3.00389        4.53071       -0.32773
H          3.15313        2.32594        1.77702
H          4.15987        3.75077        1.67489
H          1.27729        3.74257        2.12323
H          2.15913        5.09112        1.91451
H          5.27001        1.97586        0.56880
H          6.75544        1.26278       -3.18530
H          4.90398        2.53401       -4.27810
H          3.16393        3.55929       -2.85269

--Link1--
%chk=JID_7201.chk
%mem=8GB
%nprocshared=4
# B3LYP/6-311++G(d,p) empiricaldispersion=gd3bj scf=xqc pop=npa geom=check

CID_61642434_JID_7201_Energie_neutraal

0 1

--Link1--
%chk=JID_7201.chk
%mem=8GB
%nprocshared=4
# B3LYP/6-311++G(d,p) empiricaldispersion=gd3bj scf=xqc pop=npa geom=check

CID_61642434_JID_7201_Energie_kation

1 2

--Link1--
%chk=JID_7201.chk
%mem=8GB
%nprocshared=4
# B3LYP/6-311++G(d,p) empiricaldispersion=gd3bj scf=xqc pop=npa geom=check

CID_61642434_JID_7201_Energie_anion

-1 2
