%chk=JID_9759.chk
%mem=8GB
%nprocshared=4
# opt freq B3LYP/6-31G(d) empiricaldispersion=gd3bj scf=xqc

CID_105365896_JID_9759_neutraal

0 1
C          2.49200       -0.00900       -0.33800
C          1.64958       -1.09270        0.35014
C          0.28174       -0.49207        0.26897
C          0.35456        0.88061        0.02020
C          1.77819        1.32768       -0.09281
C         -0.78993        1.65782       -0.04927
C         -2.03950        1.04693        0.13919
C         -2.09889       -0.34511        0.36678
C         -0.93762       -1.11902        0.44481
C         -3.31032        1.86639        0.08882
C         -3.81172        2.52859        1.40914
C         -4.23267        1.46330        2.44517
C         -4.22867        1.99811        3.88375
N         -3.12977        2.93099        4.21132
C         -3.59545        4.33049        4.12453
C         -3.35655        4.76216        2.68260
C         -2.76371        3.52035        1.99972
C         -2.06204        2.86689        3.18863
O         -4.99708        3.24720        1.00978
H          2.51933       -0.20823       -1.41853
H          3.52866        0.00015        0.01291
H          1.72047       -2.04803       -0.17725
H          1.94437       -1.21801        1.39705
H          2.10483        1.78458        0.84697
H          1.93504        2.02212       -0.92286
H         -0.71008        2.72181       -0.25031
H         -3.06257       -0.83478        0.49370
H         -0.99710       -2.18499        0.63923
H         -3.18553        2.64919       -0.67382
H         -4.11591        1.23912       -0.32024
H         -5.22818        1.06599        2.21163
H         -3.54717        0.61070        2.42586
H         -4.13668        1.13737        4.55833
H         -5.20881        2.43221        4.11775
H         -2.98936        4.94851        4.79846
H         -4.63693        4.46902        4.43468
H         -2.61221        5.56923        2.67102
H         -4.25521        5.15939        2.20548
H         -2.06196        3.85344        1.23018
H         -1.69597        1.85058        3.01204
H         -1.19786        3.46036        3.51485
H         -5.51667        3.44581        1.80712

--Link1--
%chk=JID_9759.chk
%mem=8GB
%nprocshared=4
# B3LYP/6-311++G(d,p) empiricaldispersion=gd3bj scf=xqc pop=npa geom=check

CID_105365896_JID_9759_Energie_neutraal

0 1

--Link1--
%chk=JID_9759.chk
%mem=8GB
%nprocshared=4
# B3LYP/6-311++G(d,p) empiricaldispersion=gd3bj scf=xqc pop=npa geom=check

CID_105365896_JID_9759_Energie_kation

1 2

--Link1--
%chk=JID_9759.chk
%mem=8GB
%nprocshared=4
# B3LYP/6-311++G(d,p) empiricaldispersion=gd3bj scf=xqc pop=npa geom=check

CID_105365896_JID_9759_Energie_anion

-1 2
