%chk=JID_8472.chk
%mem=8GB
%nprocshared=4
# opt freq B3LYP/6-31G(d) empiricaldispersion=gd3bj scf=xqc

CID_54965752_JID_8472_neutraal

0 1
C          0.91831        0.05721       -0.00740
C          0.28718        1.43341       -0.31079
C          0.79017        1.93135       -1.68274
C         -1.23834        1.21805       -0.43176
C          0.68793        2.44459        0.77778
C          2.04794        2.71072        1.02770
C          2.44716        3.62741        2.00621
C          1.49664        4.32023        2.75224
C          0.14481        4.05574        2.53526
C         -0.25399        3.13410        1.55836
S          2.02596        5.49575        3.98024
C          1.33033        7.04169        3.29190
C          2.37637        7.90769        2.58679
C          2.98798        7.33929        1.29964
C          1.98939        7.01657        0.18822
C          1.25107        8.24797       -0.28956
N          1.83135        9.15399       -1.00445
N         -0.05785        8.41372        0.03606
H          0.61261       -0.68991       -0.74926
H          0.61147       -0.30813        0.97983
H          2.01313        0.08965       -0.02068
H          0.49313        1.24611       -2.48525
H          0.37870        2.92000       -1.91870
H          1.88214        2.01335       -1.71801
H         -1.66700        0.83826        0.50303
H         -1.75814        2.14703       -0.69353
H         -1.47329        0.48721       -1.21493
H          2.82500        2.20218        0.46067
H          3.50846        3.79846        2.17079
H         -0.61605        4.55821        3.12777
H         -1.32111        2.97111        1.43456
H          0.47375        6.84438        2.64164
H          0.94129        7.60664        4.14652
H          1.91454        8.87633        2.35763
H          3.19157        8.13209        3.28724
H          3.71467        8.07139        0.92455
H          3.56648        6.43835        1.53020
H          2.52974        6.59712       -0.66889
H          1.26769        6.26045        0.50838
H          2.81254        8.90435       -1.16919
H         -0.61923        7.57403        0.10752
H         -0.49197        9.14153       -0.52380

--Link1--
%chk=JID_8472.chk
%mem=8GB
%nprocshared=4
# B3LYP/6-311++G(d,p) empiricaldispersion=gd3bj scf=xqc pop=npa geom=check

CID_54965752_JID_8472_Energie_neutraal

0 1

--Link1--
%chk=JID_8472.chk
%mem=8GB
%nprocshared=4
# B3LYP/6-311++G(d,p) empiricaldispersion=gd3bj scf=xqc pop=npa geom=check

CID_54965752_JID_8472_Energie_kation

1 2

--Link1--
%chk=JID_8472.chk
%mem=8GB
%nprocshared=4
# B3LYP/6-311++G(d,p) empiricaldispersion=gd3bj scf=xqc pop=npa geom=check

CID_54965752_JID_8472_Energie_anion

-1 2
