%chk=JID_7698.chk
%mem=8GB
%nprocshared=4
# opt freq B3LYP/6-31G(d) empiricaldispersion=gd3bj scf=xqc

CID_103362307_JID_7698_neutraal

0 1
C          1.00112        0.09293        0.03691
C          0.30719        0.42821        1.35796
C          0.20749        1.94316        1.58171
C         -0.93433        2.60131        0.80861
C         -2.27294        1.92105        1.11674
C         -2.24104        0.40865        0.79272
C         -1.05728       -0.26418        1.51349
C         -2.27048        0.07954       -0.70493
N         -3.35194        2.57088        0.38169
C         -4.10273        3.60355        0.87266
C         -4.99471        4.38943        0.15486
C         -5.61677        5.38546        0.98281
N         -5.26425        5.36915        2.26168
S         -4.15831        4.16564        2.49978
N         -6.51513        6.26980        0.50773
S         -5.34265        4.18522       -1.57238
C         -6.35710        2.68908       -1.48670
H          0.53851        0.58480       -0.82041
H          1.00150       -0.98698       -0.14341
H          2.04618        0.42142        0.06756
H          0.95905        0.02450        2.14519
H          0.04951        2.12665        2.65275
H          1.15568        2.42998        1.32414
H         -0.72364        2.58029       -0.26692
H         -0.98306        3.66214        1.08459
H         -2.45065        1.99526        2.19714
H         -3.15680       -0.03639        1.20830
H         -0.98391       -1.31941        1.22295
H         -1.29531       -0.27179        2.58678
H         -2.06731       -0.98244       -0.87793
H         -3.26224        0.28569       -1.12281
H         -1.55215        0.66475       -1.28178
H         -3.26368        2.52587       -0.63254
H         -6.90417        6.17864       -0.42305
H         -7.04662        6.82974        1.16301
H         -5.77080        1.84109       -1.12305
H         -7.21593        2.84421       -0.82775
H         -6.72624        2.44850       -2.48723

--Link1--
%chk=JID_7698.chk
%mem=8GB
%nprocshared=4
# B3LYP/6-311++G(d,p) empiricaldispersion=gd3bj scf=xqc pop=npa geom=check

CID_103362307_JID_7698_Energie_neutraal

0 1

--Link1--
%chk=JID_7698.chk
%mem=8GB
%nprocshared=4
# B3LYP/6-311++G(d,p) empiricaldispersion=gd3bj scf=xqc pop=npa geom=check

CID_103362307_JID_7698_Energie_kation

1 2

--Link1--
%chk=JID_7698.chk
%mem=8GB
%nprocshared=4
# B3LYP/6-311++G(d,p) empiricaldispersion=gd3bj scf=xqc pop=npa geom=check

CID_103362307_JID_7698_Energie_anion

-1 2
