%chk=JID_5275.chk
%mem=8GB
%nprocshared=4
# opt freq B3LYP/6-31G(d) empiricaldispersion=gd3bj scf=xqc

CID_67829625_JID_5275_neutraal

0 1
C          1.06589        0.04296       -0.06175
C          0.65202        0.53576        2.02088
C          1.39059        1.54732        3.20293
N          0.80772        2.89176        3.32961
C          1.45816        3.69882        4.35978
C          2.82093        4.28039        3.96445
C          2.75265        5.25485        2.79697
C          2.57625       -0.05343        1.37976
C          2.05412        1.60498        0.84466
C          0.32094        1.92807        0.46086
C         -0.88026        0.57155        0.50678
C         -0.35767       -1.07095        1.03354
C          1.38291       -1.39693        1.42447
C         -2.30801        0.80506        0.11085
N         -2.76365        2.12779        0.51262
H          0.66584        0.64921       -0.93434
H          0.76267       -0.94314       -0.53267
H          2.11628       -0.00218       -0.49323
H         -0.37820        0.89676        2.30019
H          0.58563       -0.31377        2.76039
H          1.17333        1.04103        4.15663
H          2.48532        1.56086        3.16169
H          0.83536        3.36925        2.43382
H          0.78471        4.52940        4.60296
H          1.56097        3.11853        5.28487
H          3.23033        4.81170        4.83237
H          3.53184        3.48092        3.72934
H          2.04435        6.06376        3.00209
H          3.73660        5.70300        2.62499
H          2.45027        4.75720        1.87136
H          3.62222       -0.24344        1.60741
H          2.78783        2.40386        0.76592
H          0.00175        2.91319        0.12927
H         -1.07588       -1.88626        1.06502
H          1.69426       -2.39676        1.71473
H         -2.39644        0.69359       -0.97377
H         -2.93750        0.04664        0.58679
H         -3.76969        2.19051        0.37398
H         -2.60507        2.23518        1.51535

--Link1--
%chk=JID_5275.chk
%mem=8GB
%nprocshared=4
# B3LYP/6-311++G(d,p) empiricaldispersion=gd3bj scf=xqc pop=npa geom=check

CID_67829625_JID_5275_Energie_neutraal

0 1

--Link1--
%chk=JID_5275.chk
%mem=8GB
%nprocshared=4
# B3LYP/6-311++G(d,p) empiricaldispersion=gd3bj scf=xqc pop=npa geom=check

CID_67829625_JID_5275_Energie_kation

1 2

--Link1--
%chk=JID_5275.chk
%mem=8GB
%nprocshared=4
# B3LYP/6-311++G(d,p) empiricaldispersion=gd3bj scf=xqc pop=npa geom=check

CID_67829625_JID_5275_Energie_anion

-1 2
