%chk=JID_5338.chk
%mem=8GB
%nprocshared=4
# opt freq B3LYP/6-31G(d) empiricaldispersion=gd3bj scf=xqc

CID_133724771_JID_5338_neutraal

0 1
C          0.99641       -0.06155       -0.07873
C         -0.50206       -0.10334        0.17877
C         -0.83074        0.08630        1.62195
C         -1.34756        1.21543        2.23898
S         -1.38513        0.91112        3.92207
N         -0.83739       -0.65842        3.74745
N         -0.57269       -0.97201        2.49081
C         -1.75119        2.49558        1.73434
O         -1.28642        3.56244        2.13413
N         -2.71835        2.55266        0.75265
C         -3.75570        1.55580        0.52449
C         -4.47488        1.77144       -0.80462
C         -3.61059        1.42591       -2.01314
O         -3.27558        0.04004       -1.96665
C         -2.52682       -0.35860       -3.10827
H          1.42206        0.90043        0.22665
H          1.20222       -0.20262       -1.14449
H          1.51700       -0.84999        0.47530
H         -0.98046        0.66919       -0.43025
H         -0.90367       -1.06655       -0.15684
H         -2.97061        3.51837        0.57560
H         -3.34715        0.54529        0.59309
H         -4.47145        1.66593        1.34748
H         -5.36401        1.12928       -0.81466
H         -4.81500        2.81036       -0.88538
H         -4.17493        1.63215       -2.92995
H         -2.69506        2.02794       -2.02238
H         -1.58902        0.20223       -3.16558
H         -2.29265       -1.42203       -3.01110
H         -3.11228       -0.21085       -4.02074

--Link1--
%chk=JID_5338.chk
%mem=8GB
%nprocshared=4
# B3LYP/6-311++G(d,p) empiricaldispersion=gd3bj scf=xqc pop=npa geom=check

CID_133724771_JID_5338_Energie_neutraal

0 1

--Link1--
%chk=JID_5338.chk
%mem=8GB
%nprocshared=4
# B3LYP/6-311++G(d,p) empiricaldispersion=gd3bj scf=xqc pop=npa geom=check

CID_133724771_JID_5338_Energie_kation

1 2

--Link1--
%chk=JID_5338.chk
%mem=8GB
%nprocshared=4
# B3LYP/6-311++G(d,p) empiricaldispersion=gd3bj scf=xqc pop=npa geom=check

CID_133724771_JID_5338_Energie_anion

-1 2
