%chk=JID_10683.chk
%mem=8GB
%nprocshared=4
# opt freq B3LYP/6-31G(d) empiricaldispersion=gd3bj scf=xqc

CID_115798736_JID_10683_neutraal

0 1
C          1.02222       -0.08751       -0.04299
C          1.60442       -1.46737       -0.29542
C          2.04537       -2.19726        0.97627
C          0.97368       -2.38048        2.05922
C         -0.34068       -3.02238        1.58957
C         -0.21927       -4.39210        0.89610
C          0.63240       -5.46165        1.56582
C         -1.38495       -2.95545        2.71029
O         -2.32572       -2.15604        2.63487
C         -1.19542       -3.78533        3.96113
C         -2.43995       -4.58649        4.40132
C         -2.08545       -5.32940        5.71054
C         -2.62111       -6.74987        5.73709
O         -2.17805       -7.46716        4.57987
C         -2.72610       -6.91810        3.45053
C         -3.08149       -7.79347        2.42572
C         -3.74095       -7.30823        1.29823
C         -4.05024       -5.95334        1.20737
C         -3.66008       -5.07713        2.22258
C         -2.94596       -5.54197        3.33725
H          0.08816       -0.13637        0.52354
H          0.80622        0.40848       -0.99479
H          1.72830        0.53910        0.51115
H          0.87720       -2.06989       -0.84949
H          2.47727       -1.36395       -0.95160
H          2.44419       -3.17675        0.68829
H          2.88685       -1.65086        1.42138
H          1.40673       -2.96767        2.87856
H          0.75116       -1.40045        2.50216
H         -0.76454       -2.36151        0.81968
H         -1.21802       -4.80348        0.71982
H          0.20687       -4.22662       -0.10140
H          0.13547       -5.89584        2.43490
H          0.80269       -6.28512        0.86343
H          1.61183       -5.08640        1.87148
H         -0.33931       -4.44854        3.83376
H         -0.90869       -3.08382        4.75585
H         -3.25827       -3.88869        4.62592
H         -2.45523       -4.76484        6.57442
H         -0.99483       -5.38633        5.82578
H         -2.23294       -7.27534        6.61627
H         -3.71688       -6.77606        5.80648
H         -2.87337       -8.85502        2.52147
H         -4.03513       -7.98839        0.50366
H         -4.58956       -5.57288        0.34331
H         -3.91735       -4.02353        2.12797

--Link1--
%chk=JID_10683.chk
%mem=8GB
%nprocshared=4
# B3LYP/6-311++G(d,p) empiricaldispersion=gd3bj scf=xqc pop=npa geom=check

CID_115798736_JID_10683_Energie_neutraal

0 1

--Link1--
%chk=JID_10683.chk
%mem=8GB
%nprocshared=4
# B3LYP/6-311++G(d,p) empiricaldispersion=gd3bj scf=xqc pop=npa geom=check

CID_115798736_JID_10683_Energie_kation

1 2

--Link1--
%chk=JID_10683.chk
%mem=8GB
%nprocshared=4
# B3LYP/6-311++G(d,p) empiricaldispersion=gd3bj scf=xqc pop=npa geom=check

CID_115798736_JID_10683_Energie_anion

-1 2
