%chk=JID_3995.chk
%mem=8GB
%nprocshared=4
# opt freq B3LYP/6-31G(d) empiricaldispersion=gd3bj scf=xqc

CID_123554297_JID_3995_neutraal

0 1
C          1.00018        0.02667        0.09638
C          0.52431       -0.60943        1.38792
C          1.26969       -0.28048        2.64738
C          2.74506       -0.55372        2.77004
C          2.23965        0.86241        2.86374
O          2.56749        1.72212        1.76558
C          3.81940        2.25014        1.72868
O          4.70527        2.05897        2.55005
C          3.97561        3.09200        0.49946
O          2.22974        1.44299        4.17893
C          1.29599        2.40126        4.42311
O          0.44665        2.79353        3.63468
C          1.43002        2.89621        5.83018
H          0.84057        1.10897        0.10425
H          0.43055       -0.37569       -0.74816
H          2.05883       -0.17342       -0.09270
H         -0.52705       -0.33283        1.53406
H          0.53751       -1.69951        1.26543
H          0.66498       -0.56887        3.50421
H          3.10635       -1.01795        3.68042
H          3.30526       -0.83688        1.88767
H          3.19887        3.86049        0.47307
H          4.95025        3.58776        0.52062
H          3.92075        2.45928       -0.39000
H          1.10795        2.11843        6.52664
H          2.46572        3.18460        6.02778
H          0.79919        3.77964        5.96436

--Link1--
%chk=JID_3995.chk
%mem=8GB
%nprocshared=4
# B3LYP/6-311++G(d,p) empiricaldispersion=gd3bj scf=xqc pop=npa geom=check

CID_123554297_JID_3995_Energie_neutraal

0 1

--Link1--
%chk=JID_3995.chk
%mem=8GB
%nprocshared=4
# B3LYP/6-311++G(d,p) empiricaldispersion=gd3bj scf=xqc pop=npa geom=check

CID_123554297_JID_3995_Energie_kation

1 2

--Link1--
%chk=JID_3995.chk
%mem=8GB
%nprocshared=4
# B3LYP/6-311++G(d,p) empiricaldispersion=gd3bj scf=xqc pop=npa geom=check

CID_123554297_JID_3995_Energie_anion

-1 2
