%chk=JID_8036.chk
%mem=8GB
%nprocshared=4
# opt freq B3LYP/6-31G(d) empiricaldispersion=gd3bj scf=xqc

CID_61740182_JID_8036_neutraal

0 1
C          1.07842       -0.02414       -0.05717
C          0.58628       -1.45960       -0.20529
C          0.87529       -2.33355        1.01947
N          0.15707       -1.84303        2.19288
C          0.53286       -2.56083        3.42691
C         -0.39354       -3.75715        3.67037
C         -0.05375       -4.45467        4.98802
C         -0.09177       -3.48796        6.18042
C          0.81839       -2.26995        5.94364
C          0.45563       -1.55520        4.62961
N          1.22230       -0.30760        4.33658
C          2.68163       -0.51610        4.33151
C          3.41494        0.69680        3.76223
C          3.07447        1.95280        4.54642
C          1.56428        2.12552        4.63036
C          0.85992        0.86181        5.17222
C         -0.64729        1.15736        5.21091
C          0.30239       -4.20926        7.46852
H          0.51350        0.52272        0.70352
H          0.95614        0.51139       -1.00426
H          2.13921        0.00210        0.21144
H         -0.48907       -1.45496       -0.42055
H          1.08015       -1.90936       -1.07515
H          0.56729       -3.36146        0.79874
H          1.95712       -2.33896        1.20015
H          0.42346       -0.86529        2.35911
H          1.56140       -2.93572        3.35310
H         -0.30661       -4.48008        2.85045
H         -1.44076       -3.42886        3.69482
H          0.94263       -4.90817        4.90802
H         -0.76215       -5.27553        5.15233
H         -1.12288       -3.12898        6.29944
H          0.71887       -1.57788        6.78815
H          1.86301       -2.60406        5.92147
H         -0.60625       -1.28833        4.68983
H          3.05156       -0.71817        5.34443
H          2.95767       -1.37310        3.71004
H          3.14184        0.83226        2.70795
H          4.49671        0.52387        3.79240
H          3.52799        2.82873        4.06970
H          3.49313        1.88213        5.55762
H          1.17475        2.36880        3.63234
H          1.34214        2.98538        5.27406
H          1.19532        0.69553        6.20446
H         -1.19185        0.41023        5.79649
H         -0.84253        2.12597        5.68493
H         -1.07370        1.18946        4.20193
H          0.24085       -3.53211        8.32693
H         -0.36660       -5.05473        7.66033
H          1.32660       -4.59337        7.41277

--Link1--
%chk=JID_8036.chk
%mem=8GB
%nprocshared=4
# B3LYP/6-311++G(d,p) empiricaldispersion=gd3bj scf=xqc pop=npa geom=check

CID_61740182_JID_8036_Energie_neutraal

0 1

--Link1--
%chk=JID_8036.chk
%mem=8GB
%nprocshared=4
# B3LYP/6-311++G(d,p) empiricaldispersion=gd3bj scf=xqc pop=npa geom=check

CID_61740182_JID_8036_Energie_kation

1 2

--Link1--
%chk=JID_8036.chk
%mem=8GB
%nprocshared=4
# B3LYP/6-311++G(d,p) empiricaldispersion=gd3bj scf=xqc pop=npa geom=check

CID_61740182_JID_8036_Energie_anion

-1 2
