%chk=JID_5405.chk
%mem=8GB
%nprocshared=4
# opt freq B3LYP/6-31G(d) empiricaldispersion=gd3bj scf=xqc

CID_65562242_JID_5405_neutraal

0 1
C          1.00439       -0.08337        0.05505
C          1.00737       -1.57768       -0.27194
C          1.82672       -2.40331        0.73991
C          1.08072       -2.66186        2.07336
C         -0.30073       -3.21563        1.73542
N         -1.09635       -2.34509        0.87023
C         -0.41798       -2.13585       -0.41034
C          1.25688       -1.47427        3.03671
O          2.21375       -0.69783        2.90813
N          0.57832       -1.32966        4.20708
C         -0.86741       -1.37122        4.46326
C         -1.09338       -1.56159        5.96208
C         -1.56292       -0.07822        3.98551
O         -1.56472       -0.02583        2.55751
C         -2.15297        1.17754        2.07666
H          2.02846        0.29827        0.12524
H          0.49509        0.14274        0.99203
H          0.49779        0.47896       -0.73696
H          1.49865       -1.67913       -1.24913
H          2.03524       -3.37986        0.28002
H          2.80735       -1.94116        0.90238
H          1.62389       -3.47281        2.58149
H         -0.86689       -3.48432        2.62509
H         -0.17451       -4.17857        1.21943
H         -1.22961       -1.43884        1.33899
H         -1.02736       -1.46527       -1.02734
H         -0.38222       -3.09070       -0.95044
H          1.02825       -0.56725        4.70216
H         -1.30753       -2.21420        3.94368
H         -0.67382       -0.72859        6.53724
H         -2.16170       -1.63140        6.19149
H         -0.61145       -2.48102        6.31217
H         -2.60211       -0.06303        4.33458
H         -1.04302        0.80236        4.38253
H         -1.57631        2.04457        2.41253
H         -2.14064        1.15231        0.98367
H         -3.19069        1.25861        2.41357

--Link1--
%chk=JID_5405.chk
%mem=8GB
%nprocshared=4
# B3LYP/6-311++G(d,p) empiricaldispersion=gd3bj scf=xqc pop=npa geom=check

CID_65562242_JID_5405_Energie_neutraal

0 1

--Link1--
%chk=JID_5405.chk
%mem=8GB
%nprocshared=4
# B3LYP/6-311++G(d,p) empiricaldispersion=gd3bj scf=xqc pop=npa geom=check

CID_65562242_JID_5405_Energie_kation

1 2

--Link1--
%chk=JID_5405.chk
%mem=8GB
%nprocshared=4
# B3LYP/6-311++G(d,p) empiricaldispersion=gd3bj scf=xqc pop=npa geom=check

CID_65562242_JID_5405_Energie_anion

-1 2
