%chk=JID_1751.chk
%mem=8GB
%nprocshared=4
# opt freq B3LYP/6-31G(d) empiricaldispersion=gd3bj scf=xqc

CID_116264790_JID_1751_neutraal

0 1
C          0.93971       -0.06955        0.03910
C          0.48798        1.35190       -0.26677
C          0.57669        1.72836       -1.76448
C         -0.26459        0.80159       -2.67541
C         -1.77378        0.85174       -2.43548
O         -2.30340        2.13104       -2.76074
N          0.13975        3.13512       -1.91709
C          1.05478        3.95853       -2.74681
C          1.11507        3.52698       -4.21125
C          0.62343        5.45062       -2.66731
N          0.29692        5.87086       -1.29555
H          0.24553       -0.80908       -0.37009
H          0.98135       -0.22379        1.12229
H          1.93694       -0.26242       -0.36849
H         -0.53077        1.49340        0.11347
H          1.12827        2.03471        0.30781
H          1.63100        1.62289       -2.05224
H         -0.08018        1.06930       -3.72202
H          0.07907       -0.23282       -2.56531
H         -2.27580        0.11636       -3.07195
H         -2.02951        0.62043       -1.39792
H         -1.61129        2.77755       -2.49593
H          0.17288        3.58927       -0.99619
H          2.06322        3.89183       -2.31631
H          0.11542        3.48907       -4.65773
H          1.71561        4.23208       -4.79661
H          1.58016        2.54279       -4.32129
H          1.43587        6.08108       -3.04621
H         -0.25446        5.62929       -3.29986
H          0.14200        6.87947       -1.29605
H         -0.61184        5.46837       -1.05816

--Link1--
%chk=JID_1751.chk
%mem=8GB
%nprocshared=4
# B3LYP/6-311++G(d,p) empiricaldispersion=gd3bj scf=xqc pop=npa geom=check

CID_116264790_JID_1751_Energie_neutraal

0 1

--Link1--
%chk=JID_1751.chk
%mem=8GB
%nprocshared=4
# B3LYP/6-311++G(d,p) empiricaldispersion=gd3bj scf=xqc pop=npa geom=check

CID_116264790_JID_1751_Energie_kation

1 2

--Link1--
%chk=JID_1751.chk
%mem=8GB
%nprocshared=4
# B3LYP/6-311++G(d,p) empiricaldispersion=gd3bj scf=xqc pop=npa geom=check

CID_116264790_JID_1751_Energie_anion

-1 2
