%chk=JID_10615.chk
%mem=8GB
%nprocshared=4
# opt freq B3LYP/6-31G(d) empiricaldispersion=gd3bj scf=xqc

CID_153939224_JID_10615_neutraal

0 1
C          1.00024       -0.01702       -0.09854
C          0.45133       -1.08824       -1.04185
C          0.92734       -2.51011       -0.66275
C          0.90949       -2.93597        0.81276
C         -0.44600       -2.99671        1.50954
N         -1.38214       -3.88848        0.85337
C         -2.53439       -4.41849        1.35228
O         -3.18611       -5.22681        0.69874
C         -2.95728       -4.03594        2.72405
C         -3.31828       -2.76835        2.97711
C         -3.03962       -5.15340        3.71195
C         -1.07995       -1.00662       -1.20742
C         -1.61619        0.29771       -1.81907
C         -1.09282        0.63280       -3.21554
N         -1.34637       -0.42733       -4.17427
C         -2.17106       -0.43209       -5.25822
O         -2.10448       -1.33498       -6.08685
C         -3.12290        0.69232       -5.44049
C         -4.12294        0.85680       -4.56085
C         -2.94165        1.50584       -6.67953
H          0.51822       -0.05738        0.88309
H          0.84144        0.98571       -0.50741
H          2.07922       -0.14037        0.04322
H          0.89210       -0.89895       -2.02904
H          0.39038       -3.24868       -1.27011
H          1.97515       -2.58888       -0.98669
H          1.36299       -3.93488        0.86708
H          1.57043       -2.27841        1.38970
H         -0.30024       -3.35280        2.53589
H         -0.89627       -2.00444        1.58088
H         -1.19474       -4.19642       -0.09273
H         -3.67191       -2.47048        3.95876
H         -3.29710       -2.00653        2.20382
H         -3.73488       -5.92573        3.36707
H         -2.05454       -5.61086        3.85107
H         -3.38667       -4.80552        4.69062
H         -1.42223       -1.84808       -1.82256
H         -1.56854       -1.12495       -0.23641
H         -2.70927        0.21935       -1.85748
H         -1.39738        1.13634       -1.14831
H         -1.53637        1.57135       -3.56054
H         -0.00990        0.79053       -3.19581
H         -0.72976       -1.23052       -4.16095
H         -4.86165        1.64108       -4.68882
H         -4.24536        0.19312       -3.71053
H         -1.95805        1.98681       -6.67786
H         -3.01814        0.87585       -7.57176
H         -3.69783        2.29365       -6.76205

--Link1--
%chk=JID_10615.chk
%mem=8GB
%nprocshared=4
# B3LYP/6-311++G(d,p) empiricaldispersion=gd3bj scf=xqc pop=npa geom=check

CID_153939224_JID_10615_Energie_neutraal

0 1

--Link1--
%chk=JID_10615.chk
%mem=8GB
%nprocshared=4
# B3LYP/6-311++G(d,p) empiricaldispersion=gd3bj scf=xqc pop=npa geom=check

CID_153939224_JID_10615_Energie_kation

1 2

--Link1--
%chk=JID_10615.chk
%mem=8GB
%nprocshared=4
# B3LYP/6-311++G(d,p) empiricaldispersion=gd3bj scf=xqc pop=npa geom=check

CID_153939224_JID_10615_Energie_anion

-1 2
