%chk=JID_5050.chk
%mem=8GB
%nprocshared=4
# opt freq B3LYP/6-31G(d) empiricaldispersion=gd3bj scf=xqc

CID_61554563_JID_5050_neutraal

0 1
C          2.91400       -0.01100        0.00300
C          1.40819        0.13226        0.09961
C          0.55116       -0.98362        0.16552
C         -0.84357       -0.85402        0.40720
C         -1.37300        0.42658        0.64448
C         -0.52310        1.54280        0.50377
C          0.84344        1.39880        0.24295
C         -2.75959        0.68076        1.15951
C         -1.58918       -2.13802        0.62226
O         -1.03649       -2.96033        1.36274
C         -2.96199       -2.50171        0.01763
C         -4.03832       -2.48120        1.10846
C         -3.45734       -1.80901       -1.25688
C         -2.93605       -2.51124       -2.50007
N         -2.50359       -3.09379       -3.53140
H          3.34815       -0.04597        1.00661
H          3.17622       -0.92944       -0.53195
H          3.34775        0.82874       -0.54948
H          0.98117       -1.98301        0.08475
H         -0.90847        2.54896        0.66688
H          1.47145        2.28705        0.20411
H         -3.51113        0.51327        0.38713
H         -2.95775        0.05241        2.03253
H         -2.87693        1.71718        1.49675
H         -2.83758       -3.56615       -0.23982
H         -3.65557       -2.85300        2.06464
H         -4.43800       -1.47829        1.27379
H         -4.88184       -3.11804        0.81855
H         -4.55232       -1.82439       -1.31099
H         -3.13852       -0.76664       -1.31483

--Link1--
%chk=JID_5050.chk
%mem=8GB
%nprocshared=4
# B3LYP/6-311++G(d,p) empiricaldispersion=gd3bj scf=xqc pop=npa geom=check

CID_61554563_JID_5050_Energie_neutraal

0 1

--Link1--
%chk=JID_5050.chk
%mem=8GB
%nprocshared=4
# B3LYP/6-311++G(d,p) empiricaldispersion=gd3bj scf=xqc pop=npa geom=check

CID_61554563_JID_5050_Energie_kation

1 2

--Link1--
%chk=JID_5050.chk
%mem=8GB
%nprocshared=4
# B3LYP/6-311++G(d,p) empiricaldispersion=gd3bj scf=xqc pop=npa geom=check

CID_61554563_JID_5050_Energie_anion

-1 2
