%chk=JID_7771.chk
%mem=8GB
%nprocshared=4
# opt freq B3LYP/6-31G(d) empiricaldispersion=gd3bj scf=xqc

CID_130537173_JID_7771_neutraal

0 1
C          0.93807        0.03170       -0.07183
C          0.21142       -0.54725        1.13544
C          1.19206       -1.30264        2.03565
C          0.58851       -1.99614        3.29529
C         -0.38423       -3.11707        2.86757
C          1.76111       -2.60232        4.13141
C          2.47403       -3.79738        3.48520
O          3.79478       -3.99241        3.99522
C          4.77321       -3.06554        3.51056
C          4.97911       -3.11789        2.01483
C          5.24708       -4.33604        1.37461
C          5.41628       -4.38549       -0.00985
C          5.32698       -3.21867       -0.76671
C          5.07319       -1.99982       -0.14019
C          4.90424       -1.94829        1.24440
C         -0.21876       -1.00202        4.18440
N          0.52665        0.15581        4.66787
H          1.71968        0.73243        0.23893
H          0.23428        0.57126       -0.71335
H          1.40268       -0.75963       -0.66894
H         -0.26547        0.27198        1.68244
H         -0.58033       -1.21562        0.78230
H          1.68964       -2.05435        1.41206
H          1.98233       -0.60768        2.34865
H          0.07158       -3.79738        2.14063
H         -0.69932       -3.71237        3.73223
H         -1.29058       -2.70962        2.40684
H          2.48244       -1.81278        4.36438
H          1.38401       -2.93315        5.10894
H          1.91362       -4.70764        3.72798
H          2.49916       -3.74548        2.39523
H          4.52317       -2.05267        3.84203
H          5.72384       -3.31839        3.99418
H          5.30807       -5.25311        1.95718
H          5.61397       -5.33641       -0.49792
H          5.45600       -3.25908       -1.84511
H          5.00537       -1.08992       -0.73071
H          4.70341       -0.98879        1.71578
H         -1.09754       -0.63589        3.64116
H         -0.61325       -1.53385        5.05927
H          0.90982        0.68056        3.88426
H          1.31837       -0.14488        5.23282

--Link1--
%chk=JID_7771.chk
%mem=8GB
%nprocshared=4
# B3LYP/6-311++G(d,p) empiricaldispersion=gd3bj scf=xqc pop=npa geom=check

CID_130537173_JID_7771_Energie_neutraal

0 1

--Link1--
%chk=JID_7771.chk
%mem=8GB
%nprocshared=4
# B3LYP/6-311++G(d,p) empiricaldispersion=gd3bj scf=xqc pop=npa geom=check

CID_130537173_JID_7771_Energie_kation

1 2

--Link1--
%chk=JID_7771.chk
%mem=8GB
%nprocshared=4
# B3LYP/6-311++G(d,p) empiricaldispersion=gd3bj scf=xqc pop=npa geom=check

CID_130537173_JID_7771_Energie_anion

-1 2
