%chk=JID_8179.chk
%mem=8GB
%nprocshared=4
# opt freq B3LYP/6-31G(d) empiricaldispersion=gd3bj scf=xqc

CID_19428991_JID_8179_neutraal

0 1
C          0.98147        0.07416       -0.06448
C          0.49482        0.55558        1.30811
C          0.55594        2.09511        1.43002
C         -0.23170        2.89604        0.39325
O         -1.63888        2.80741        0.65225
C         -2.42806        2.42568       -0.38243
O         -2.04268        2.06600       -1.48416
C         -3.86416        2.41001        0.01844
C         -4.31624        3.09017        1.08563
C         -4.76271        1.59981       -0.86550
C         -0.88008       -0.06211        1.64221
O         -0.80313       -1.48137        1.67305
O         -1.47715        0.45052        2.83732
C         -0.86673        0.21368        4.02125
O          0.18576       -0.37857        4.20167
C         -1.66937        0.77544        5.15041
C         -2.69991        1.61717        4.95910
C         -1.22943        0.34105        6.51655
H          0.26105        0.30627       -0.85493
H          1.13442       -1.01036       -0.06517
H          1.93795        0.53982       -0.32448
H          1.22343        0.16616        2.03085
H          0.22899        2.39021        2.43399
H          1.60938        2.39369        1.34921
H          0.03215        3.95442        0.50039
H          0.04328        2.60748       -0.62585
H         -5.36718        3.07573        1.35727
H         -3.66077        3.68941        1.71064
H         -4.75392        1.98961       -1.88857
H         -4.43373        0.55525       -0.88704
H         -5.80006        1.61165       -0.51450
H         -1.57406        0.17769        0.83233
H         -1.70580       -1.80562        1.52652
H         -3.26213        2.01488        5.79826
H         -3.00992        1.94059        3.97041
H         -1.27928       -0.74942        6.60555
H         -0.20035        0.66088        6.71065
H         -1.86187        0.76507        7.30386

--Link1--
%chk=JID_8179.chk
%mem=8GB
%nprocshared=4
# B3LYP/6-311++G(d,p) empiricaldispersion=gd3bj scf=xqc pop=npa geom=check

CID_19428991_JID_8179_Energie_neutraal

0 1

--Link1--
%chk=JID_8179.chk
%mem=8GB
%nprocshared=4
# B3LYP/6-311++G(d,p) empiricaldispersion=gd3bj scf=xqc pop=npa geom=check

CID_19428991_JID_8179_Energie_kation

1 2

--Link1--
%chk=JID_8179.chk
%mem=8GB
%nprocshared=4
# B3LYP/6-311++G(d,p) empiricaldispersion=gd3bj scf=xqc pop=npa geom=check

CID_19428991_JID_8179_Energie_anion

-1 2
