%chk=JID_5626.chk
%mem=8GB
%nprocshared=4
# opt freq B3LYP/6-31G(d) empiricaldispersion=gd3bj scf=xqc

CID_152852115_JID_5626_neutraal

0 1
C          2.62500       -0.32100        0.00300
C          1.41973       -0.25621        0.88347
C          0.62361       -1.34574        1.22610
S         -0.63879       -0.88179        2.30992
C         -0.16535        0.75463        2.27616
C          0.94359        0.95403        1.48877
C          0.76607       -2.73036        0.85773
C         -0.07048       -3.27332       -0.06708
C         -0.11789       -4.74382       -0.42650
C         -1.10514       -2.48420       -0.84444
C          1.78213       -3.52001        1.46832
C          2.14911       -3.79609        2.76886
N          3.27728       -4.57851        2.80844
C          3.61752       -4.75528        1.55310
N          2.75567       -4.11967        0.70570
H          2.96477        0.68146       -0.27703
H          3.44723       -0.82504        0.52091
H          2.40398       -0.86766       -0.91951
H         -0.71425        1.49197        2.84538
H          1.40332        1.92642        1.35729
H         -1.15758       -5.08929       -0.45823
H          0.32658       -4.90376       -1.41412
H          0.39208       -5.39009        0.29249
H         -2.11109       -2.73202       -0.48994
H         -0.97780       -1.40068       -0.78201
H         -1.04400       -2.73814       -1.90884
H          1.65919       -3.47007        3.67748
H          4.46984       -5.32044        1.20055
H          2.82009       -4.09750       -0.30184

--Link1--
%chk=JID_5626.chk
%mem=8GB
%nprocshared=4
# B3LYP/6-311++G(d,p) empiricaldispersion=gd3bj scf=xqc pop=npa geom=check

CID_152852115_JID_5626_Energie_neutraal

0 1

--Link1--
%chk=JID_5626.chk
%mem=8GB
%nprocshared=4
# B3LYP/6-311++G(d,p) empiricaldispersion=gd3bj scf=xqc pop=npa geom=check

CID_152852115_JID_5626_Energie_kation

1 2

--Link1--
%chk=JID_5626.chk
%mem=8GB
%nprocshared=4
# B3LYP/6-311++G(d,p) empiricaldispersion=gd3bj scf=xqc pop=npa geom=check

CID_152852115_JID_5626_Energie_anion

-1 2
