%chk=JID_9360.chk
%mem=8GB
%nprocshared=4
# opt freq B3LYP/6-31G(d) empiricaldispersion=gd3bj scf=xqc

CID_43524284_JID_9360_neutraal

0 1
C          0.93842       -0.07747        0.01435
C          0.38318        1.16295       -0.68780
C          0.73344        1.11750       -2.16872
C          1.81617        1.84583       -2.65931
C          2.11265        1.77600       -4.01786
C          1.32852        0.98402       -4.84772
C          0.27422        0.28761       -4.28294
N         -0.03832        0.33310       -2.96961
N         -1.06785        1.24259       -0.52198
C         -1.77552        1.57355        0.60248
O         -2.94304        1.22545        0.74335
C         -1.11992        2.36681        1.66189
C         -1.11594        1.87797        2.96916
C         -0.51799        2.62718        3.98417
C          0.06100        3.87683        3.70672
C          0.02387        4.36782        2.39253
C         -0.57037        3.61961        1.37357
C          0.70200        4.68096        4.81064
N         -0.26814        5.05467        5.83120
H          0.49382       -0.99680       -0.38460
H          0.72672       -0.05133        1.08827
H          2.02436       -0.14907       -0.11203
H          0.83518        2.05206       -0.24011
H          2.42167        2.46079       -2.00150
H          2.94904        2.33633       -4.42623
H          1.53351        0.91068       -5.90980
H         -0.36734       -0.34521       -4.88966
H         -1.59293        0.68360       -1.18800
H         -1.58156        0.92238        3.19797
H         -0.52017        2.24610        5.00418
H          0.44578        5.34227        2.15670
H         -0.61977        4.01999        0.36412
H          1.50695        4.09053        5.26263
H          1.16213        5.58857        4.40347
H          0.16783        5.69426        6.49188
H         -1.03039        5.56848        5.39084

--Link1--
%chk=JID_9360.chk
%mem=8GB
%nprocshared=4
# B3LYP/6-311++G(d,p) empiricaldispersion=gd3bj scf=xqc pop=npa geom=check

CID_43524284_JID_9360_Energie_neutraal

0 1

--Link1--
%chk=JID_9360.chk
%mem=8GB
%nprocshared=4
# B3LYP/6-311++G(d,p) empiricaldispersion=gd3bj scf=xqc pop=npa geom=check

CID_43524284_JID_9360_Energie_kation

1 2

--Link1--
%chk=JID_9360.chk
%mem=8GB
%nprocshared=4
# B3LYP/6-311++G(d,p) empiricaldispersion=gd3bj scf=xqc pop=npa geom=check

CID_43524284_JID_9360_Energie_anion

-1 2
