%chk=JID_4703.chk
%mem=8GB
%nprocshared=4
# opt freq B3LYP/6-31G(d) empiricaldispersion=gd3bj scf=xqc

CID_148858139_JID_4703_neutraal

0 1
C          0.92249       -0.03501       -0.05259
C         -0.43811        0.29029        0.46773
C         -1.01456        1.49782        0.43917
N         -0.41815        2.62434       -0.04632
C         -0.75663        3.03473       -1.23160
C         -1.73516        2.36987       -2.16656
S          0.02677        4.50518       -1.80802
S          1.16116        3.81090       -3.38117
C          0.20735        4.21990       -4.84016
C          0.87049        4.32176       -6.05987
C          0.14207        4.66196       -7.19815
C         -1.22358        4.88792       -7.08839
C         -1.80634        4.75758       -5.84032
N         -1.12469        4.42479       -4.72237
H          1.43472        0.82988       -0.48398
H          0.84693       -0.80326       -0.82840
H          1.54535       -0.42729        0.75723
H         -0.99098       -0.53493        0.90917
H         -2.00574        1.62778        0.87169
H         -2.23304        3.10179       -2.80472
H         -1.20224        1.64514       -2.78962
H         -2.51824        1.84314       -1.61541
H          1.93991        4.15133       -6.13170
H          0.63912        4.75539       -8.15973
H         -1.81914        5.16099       -7.95249
H         -2.87061        4.92522       -5.69982

--Link1--
%chk=JID_4703.chk
%mem=8GB
%nprocshared=4
# B3LYP/6-311++G(d,p) empiricaldispersion=gd3bj scf=xqc pop=npa geom=check

CID_148858139_JID_4703_Energie_neutraal

0 1

--Link1--
%chk=JID_4703.chk
%mem=8GB
%nprocshared=4
# B3LYP/6-311++G(d,p) empiricaldispersion=gd3bj scf=xqc pop=npa geom=check

CID_148858139_JID_4703_Energie_kation

1 2

--Link1--
%chk=JID_4703.chk
%mem=8GB
%nprocshared=4
# B3LYP/6-311++G(d,p) empiricaldispersion=gd3bj scf=xqc pop=npa geom=check

CID_148858139_JID_4703_Energie_anion

-1 2
