%chk=JID_8109.chk
%mem=8GB
%nprocshared=4
# opt freq B3LYP/6-31G(d) empiricaldispersion=gd3bj scf=xqc

CID_54988697_JID_8109_neutraal

0 1
C          1.06327       -0.06259       -0.04560
C          0.69238        1.27474        0.59369
N          1.13654        2.45396       -0.17830
C          0.23439        2.95223       -1.25178
C          0.30671        4.49016       -1.46073
C          1.72520        4.85105       -1.87067
N          2.90195        5.15043       -2.21075
C          2.52291        2.41304       -0.43770
C          3.40352        2.90748        0.53738
C          4.75222        2.93631        0.24309
C          5.26884        2.46744       -0.96303
C          4.43147        1.92097       -1.91593
C          3.05765        1.90152       -1.64780
C          6.75596        2.68795       -0.99936
C          7.00798        3.34726        0.39545
O          8.06639        3.73377        0.86531
N          5.77307        3.44014        1.03445
N          7.15564        3.59083       -2.08505
H          0.72493       -0.11393       -1.08539
H          0.58272       -0.87846        0.50472
H          2.14089       -0.24964       -0.01742
H         -0.39488        1.31903        0.72890
H          1.11895        1.32037        1.60387
H          0.41219        2.42513       -2.19627
H         -0.80185        2.72541       -0.97118
H         -0.39566        4.79909       -2.24107
H          0.05588        5.01278       -0.53165
H          3.02412        3.30552        1.47100
H          4.81545        1.54389       -2.85764
H          2.39952        1.48272       -2.40385
H          7.29134        1.73440       -1.04184
H          5.66293        3.86341        1.94259
H          6.82035        3.21450       -2.96836
H          6.66004        4.47612       -1.96229

--Link1--
%chk=JID_8109.chk
%mem=8GB
%nprocshared=4
# B3LYP/6-311++G(d,p) empiricaldispersion=gd3bj scf=xqc pop=npa geom=check

CID_54988697_JID_8109_Energie_neutraal

0 1

--Link1--
%chk=JID_8109.chk
%mem=8GB
%nprocshared=4
# B3LYP/6-311++G(d,p) empiricaldispersion=gd3bj scf=xqc pop=npa geom=check

CID_54988697_JID_8109_Energie_kation

1 2

--Link1--
%chk=JID_8109.chk
%mem=8GB
%nprocshared=4
# B3LYP/6-311++G(d,p) empiricaldispersion=gd3bj scf=xqc pop=npa geom=check

CID_54988697_JID_8109_Energie_anion

-1 2
