%chk=JID_9506.chk
%mem=8GB
%nprocshared=4
# opt freq B3LYP/6-31G(d) empiricaldispersion=gd3bj scf=xqc

CID_66025632_JID_9506_neutraal

0 1
C          1.09163       -0.03058        0.02586
C          0.75466       -1.08895       -1.01642
C          0.84003       -2.53830       -0.48488
C         -0.05964       -2.81449        0.73982
C         -1.54734       -2.59801        0.49790
N          0.62686       -3.54695       -1.53033
C          0.94663       -4.87444       -1.44291
C          0.51948       -5.44978       -2.61387
C          0.00002       -4.38229       -3.38064
N          0.05656       -3.22520       -2.70767
C         -0.59921       -4.42186       -4.75262
C          0.39928       -4.45720       -5.95163
C          1.09922       -5.83650       -6.04260
C          2.19578       -5.85750       -7.10311
O          3.15369       -4.83184       -6.85920
C          2.58748       -3.52324       -6.88939
C          1.49700       -3.36998       -5.83067
C         -0.43476       -4.18647       -7.23569
O         -1.46076       -5.15646       -7.41164
H          0.34278        0.00395        0.82222
H          1.12037        0.95903       -0.44163
H          2.07109       -0.22086        0.47561
H         -0.24311       -0.88047       -1.42090
H          1.45455       -0.97511       -1.85473
H          1.87992       -2.70235       -0.16727
H          0.08556       -3.84811        1.07862
H          0.25721       -2.18353        1.57835
H         -1.91797       -3.23167       -0.31317
H         -2.11051       -2.85128        1.40222
H         -1.76765       -1.55512        0.25371
H          1.41847       -5.29110       -0.56430
H          0.58534       -6.49386       -2.88487
H         -1.26779       -5.29186       -4.80432
H         -1.25060       -3.54238       -4.85821
H          1.57960       -6.06135       -5.08423
H          0.37869       -6.63968       -6.23200
H          2.72304       -6.81649       -7.06379
H          1.79440       -5.75436       -8.11675
H          2.21860       -3.30868       -7.89778
H          3.39520       -2.81195       -6.68753
H          1.06067       -2.36591       -5.88512
H          1.99037       -3.45536       -4.85512
H         -0.92252       -3.20700       -7.16993
H          0.16960       -4.17173       -8.14691
H         -1.07080       -5.93025       -7.85227

--Link1--
%chk=JID_9506.chk
%mem=8GB
%nprocshared=4
# B3LYP/6-311++G(d,p) empiricaldispersion=gd3bj scf=xqc pop=npa geom=check

CID_66025632_JID_9506_Energie_neutraal

0 1

--Link1--
%chk=JID_9506.chk
%mem=8GB
%nprocshared=4
# B3LYP/6-311++G(d,p) empiricaldispersion=gd3bj scf=xqc pop=npa geom=check

CID_66025632_JID_9506_Energie_kation

1 2

--Link1--
%chk=JID_9506.chk
%mem=8GB
%nprocshared=4
# B3LYP/6-311++G(d,p) empiricaldispersion=gd3bj scf=xqc pop=npa geom=check

CID_66025632_JID_9506_Energie_anion

-1 2
