%chk=JID_7612.chk
%mem=8GB
%nprocshared=4
# opt freq B3LYP/6-31G(d) empiricaldispersion=gd3bj scf=xqc

CID_115313440_JID_7612_neutraal

0 1
C          1.04806        0.03013        0.08235
C          0.29395       -0.13284        1.40380
C         -0.58347        1.07175        1.77538
C         -1.94420        1.14840        1.06840
C         -2.64701       -0.21154        1.08567
C         -1.75101       -1.34432        0.59465
N         -0.50677       -1.36728        1.37733
C         -0.26949       -2.41900        2.24654
C         -0.51916       -3.75095        1.89715
N         -0.31046       -4.83721        2.68477
C          0.19259       -4.61735        3.92935
C          0.47990       -3.33034        4.38176
C          0.24558       -2.24110        3.53303
N          0.45947       -5.74201        4.86792
O          0.20242       -6.88946        4.47472
O          0.92301       -5.47275        5.98897
N         -1.86445        1.69306       -0.28839
H          1.60944        0.97009        0.06836
H          0.39652        0.00924       -0.79325
H          1.76612       -0.78870       -0.04292
H          1.08418       -0.19019        2.16206
H         -0.78818        1.00600        2.85370
H         -0.02497        2.00654        1.63953
H         -2.57048        1.85152        1.63162
H         -3.56528       -0.17810        0.48644
H         -2.95950       -0.42884        2.11599
H         -1.51672       -1.22060       -0.46828
H         -2.31654       -2.27962        0.67335
H         -0.88679       -4.00190        0.90480
H          0.87446       -3.14710        5.37727
H          0.44630       -1.24587        3.91982
H         -1.36599        2.58237       -0.28033
H         -1.34958        1.07706       -0.91122

--Link1--
%chk=JID_7612.chk
%mem=8GB
%nprocshared=4
# B3LYP/6-311++G(d,p) empiricaldispersion=gd3bj scf=xqc pop=npa geom=check

CID_115313440_JID_7612_Energie_neutraal

0 1

--Link1--
%chk=JID_7612.chk
%mem=8GB
%nprocshared=4
# B3LYP/6-311++G(d,p) empiricaldispersion=gd3bj scf=xqc pop=npa geom=check

CID_115313440_JID_7612_Energie_kation

1 2

--Link1--
%chk=JID_7612.chk
%mem=8GB
%nprocshared=4
# B3LYP/6-311++G(d,p) empiricaldispersion=gd3bj scf=xqc pop=npa geom=check

CID_115313440_JID_7612_Energie_anion

-1 2
