%chk=JID_10167.chk
%mem=8GB
%nprocshared=4
# opt freq B3LYP/6-31G(d) empiricaldispersion=gd3bj scf=xqc

CID_60963737_JID_10167_neutraal

0 1
C          1.04424       -0.02313       -0.08665
C          1.52835        1.24340       -0.76729
C          1.66782        1.11979       -2.28656
C          0.40600        0.77873       -3.11070
C         -0.95130        1.31214       -2.62294
C         -1.63899        2.53133       -3.34323
O         -2.80189        2.40965       -3.75521
N         -1.04963        3.79274       -3.30963
C         -1.92035        4.87449       -2.84569
C         -1.43375        6.27081       -3.21238
C          0.04742        6.44163       -2.87220
C          0.83257        5.37994       -3.62888
C          0.38075        3.99561       -3.18544
N          0.46142        7.79981       -3.25624
S          1.82816        8.50453       -2.59161
O          2.86128        7.49594       -2.51363
O          2.03285        9.72854       -3.33169
C          1.32297        8.91705       -0.92622
C          0.05979        9.74710       -0.86588
N         -1.90738        0.16578       -2.72001
H          0.04802       -0.31788       -0.42558
H          0.99769        0.12556        0.99694
H          1.72956       -0.85415       -0.28255
H          0.87072        2.07856       -0.50558
H          2.51188        1.49994       -0.35415
H          2.11664        2.04562       -2.65634
H          2.42236        0.35110       -2.50337
H          0.57061        1.06219       -4.15773
H          0.37617       -0.32122       -3.12566
H         -0.92652        1.58040       -1.56474
H         -1.97263        4.78152       -1.75282
H         -2.94007        4.73218       -3.22020
H         -2.03716        7.02074       -2.68661
H         -1.59326        6.43888       -4.28577
H          0.18068        6.31719       -1.79088
H          0.67635        5.49493       -4.70983
H          1.90927        5.46655       -3.46162
H          0.87903        3.26974       -3.82811
H          0.65793        3.82073       -2.14175
H          0.31375        8.08685       -4.22599
H          1.20277        7.97946       -0.37530
H          2.15964        9.46486       -0.48020
H         -0.79788        9.19855       -1.26628
H         -0.16609       10.01057        0.17217
H          0.16569       10.67353       -1.43813
H         -2.83801        0.53808       -2.50108
H         -1.99610       -0.07638       -3.71042

--Link1--
%chk=JID_10167.chk
%mem=8GB
%nprocshared=4
# B3LYP/6-311++G(d,p) empiricaldispersion=gd3bj scf=xqc pop=npa geom=check

CID_60963737_JID_10167_Energie_neutraal

0 1

--Link1--
%chk=JID_10167.chk
%mem=8GB
%nprocshared=4
# B3LYP/6-311++G(d,p) empiricaldispersion=gd3bj scf=xqc pop=npa geom=check

CID_60963737_JID_10167_Energie_kation

1 2

--Link1--
%chk=JID_10167.chk
%mem=8GB
%nprocshared=4
# B3LYP/6-311++G(d,p) empiricaldispersion=gd3bj scf=xqc pop=npa geom=check

CID_60963737_JID_10167_Energie_anion

-1 2
