%chk=JID_10896.chk
%mem=8GB
%nprocshared=4
# opt=(cartesian,calcfc,maxcycle=500) freq B3LYP/6-31G(d) empiricaldispersion=gd3bj scf=xqc

CID_79346775_JID_10896_neutraal

0 1
S       3.5303  -2.5795 -0.4388
O       -3.2698 -2.8521 0.1754
N       1.9803  -0.5407 -0.5752
N       -2.4033 0.5708  1.2096
N       3.1531  -0.4168 1.3221
C       -1.6229 2.7084  -0.7979
C       -0.6600 1.7744  -0.0638
C       -1.1350 1.2901  1.2912
C       0.5380  1.4539  -0.5969
C       1.5589  0.6058  0.0253
C       -2.0713 2.1255  -2.1415
C       -1.0385 4.1125  -0.9839
C       2.2973  0.6620  1.1963
C       2.9199  -1.1000 0.2361
C       -2.1939 -0.7970 0.7589
C       1.7060  -1.2318 -1.7314
C       2.2579  1.6935  2.2474
C       -3.5201 -1.5297 0.6332
C       2.4459  -2.3499 -1.8226
C       -4.4727 -3.5992 0.0566
H       -2.5281 2.8332  -0.1894
H       -0.4002 0.6846  1.8279
H       -1.2896 2.1800  1.9151
H       0.7943  1.8220  -1.5877
H       -2.4959 1.1238  -2.0140
H       -2.8435 2.7577  -2.5935
H       -1.2440 2.0549  -2.8557
H       -1.7874 4.7856  -1.4155
H       -0.7242 4.5354  -0.0233
H       -0.1713 4.1093  -1.6530
H       -2.8395 0.5544  2.1315
H       -1.5465 -1.3453 1.4552
H       -1.6926 -0.8236 -0.2165
H       0.9772  -0.8781 -2.4448
H       1.6560  1.3518  3.0949
H       3.2679  1.9056  2.6128
H       1.8345  2.6333  1.8802
H       -4.0260 -1.5695 1.6057
H       -4.1722 -1.0147 -0.0828
H       2.4091  -3.0575 -2.6388
H       -4.2214 -4.6016 -0.3003
H       -5.1463 -3.1298 -0.6669
H       -4.9665 -3.6888 1.0290

--Link1--
%chk=JID_10896.chk
%mem=8GB
%nprocshared=4
# B3LYP/6-311++G(d,p) empiricaldispersion=gd3bj scf=xqc pop=npa geom=check

CID_79346775_JID_10896_Energie_neutraal

0 1

--Link1--
%chk=JID_10896.chk
%mem=8GB
%nprocshared=4
# B3LYP/6-311++G(d,p) empiricaldispersion=gd3bj scf=xqc pop=npa geom=check

CID_79346775_JID_10896_Energie_kation

1 2

--Link1--
%chk=JID_10896.chk
%mem=8GB
%nprocshared=4
# B3LYP/6-311++G(d,p) empiricaldispersion=gd3bj scf=xqc pop=npa geom=check

CID_79346775_JID_10896_Energie_anion

-1 2
