%chk=JID_10213.chk
%mem=8GB
%nprocshared=4
# opt freq B3LYP/6-31G(d) empiricaldispersion=gd3bj scf=xqc

CID_71401554_JID_10213_neutraal

0 1
C         -1.19200       -0.54900       -0.07700
C         -1.07282        0.93682        0.01037
C          0.20446        1.33016        0.04410
C          1.14280        0.17032       -0.01446
C          0.22109       -1.02041        0.29472
C          0.61815       -2.31647       -0.42314
C          1.97253       -2.85131        0.03267
O          1.89247       -3.16263        1.41373
S          3.27332       -3.16966        2.27136
O          4.14021       -4.19093        1.72020
O          3.72269       -1.80032        2.42206
C          2.72983       -3.71907        3.87552
C          3.06756       -4.99751        4.33193
C          2.62182       -5.42016        5.58715
C          1.84613       -4.55601        6.37581
C          1.51711       -3.27055        5.91861
C          1.96274       -2.85098        4.66270
N          1.37103       -5.00346        7.69223
O          1.67393       -6.14889        8.05455
O          0.69255       -4.21003        8.35944
H         -1.48559       -0.84494       -1.08973
H         -1.93096       -0.93429        0.63235
H         -1.92241        1.60609        0.00838
H          0.53067        2.36101        0.07304
H          1.93465        0.25782        0.73569
H          1.59918        0.10609       -1.00796
H          0.23747       -1.19453        1.38083
H         -0.14914       -3.07380       -0.21854
H          0.63803       -2.15680       -1.50770
H          2.21536       -3.76726       -0.51621
H          2.76188       -2.11672       -0.16113
H          3.66808       -5.66901        3.72041
H          2.88425       -6.41853        5.93354
H          0.91958       -2.59089        6.52409
H          1.71137       -1.85355        4.30462

--Link1--
%chk=JID_10213.chk
%mem=8GB
%nprocshared=4
# B3LYP/6-311++G(d,p) empiricaldispersion=gd3bj scf=xqc pop=npa geom=check

CID_71401554_JID_10213_Energie_neutraal

0 1

--Link1--
%chk=JID_10213.chk
%mem=8GB
%nprocshared=4
# B3LYP/6-311++G(d,p) empiricaldispersion=gd3bj scf=xqc pop=npa geom=check

CID_71401554_JID_10213_Energie_kation

1 2

--Link1--
%chk=JID_10213.chk
%mem=8GB
%nprocshared=4
# B3LYP/6-311++G(d,p) empiricaldispersion=gd3bj scf=xqc pop=npa geom=check

CID_71401554_JID_10213_Energie_anion

-1 2
