%chk=JID_3169.chk
%mem=8GB
%nprocshared=4
# opt freq B3LYP/6-31G(d) empiricaldispersion=gd3bj scf=xqc

CID_131025322_JID_3169_neutraal

0 1
C          1.04784        0.02643        0.08374
N          0.89954        1.41999        0.50686
C         -0.33468        1.95758       -0.07207
C          1.08243        1.66742        1.99136
C          1.40681        3.18974        2.12366
C          1.86872        3.58929        3.51556
O          3.05443        2.88769        3.86343
C          2.84299        1.48241        3.92054
C          2.35089        0.89411        2.58097
O          2.18920       -0.53851        2.59480
C          1.90496       -1.18104        3.82400
C         -0.18240        1.27732        2.85418
N         -1.38481        2.11078        2.71675
H          0.84152       -0.07839       -0.98885
H          0.36930       -0.64822        0.61545
H          2.07942       -0.31802        0.19823
H         -1.21915        1.37633        0.20882
H         -0.49830        3.00802        0.18140
H         -0.26921        1.93425       -1.16692
H          2.21592        3.43567        1.42086
H          0.55415        3.81924        1.85076
H          2.10622        4.65817        3.52866
H          1.09767        3.42139        4.27527
H          2.15983        1.26669        4.74902
H          3.79898        1.01882        4.18946
H          3.16429        1.07925        1.86459
H          2.76693       -1.13145        4.49493
H          1.01977       -0.76345        4.30728
H          1.70806       -2.23640        3.61448
H         -0.47027        0.24588        2.62187
H          0.07298        1.28985        3.91791
H         -2.12823        1.72869        3.30023
H         -1.20506        3.05185        3.05948

--Link1--
%chk=JID_3169.chk
%mem=8GB
%nprocshared=4
# B3LYP/6-311++G(d,p) empiricaldispersion=gd3bj scf=xqc pop=npa geom=check

CID_131025322_JID_3169_Energie_neutraal

0 1

--Link1--
%chk=JID_3169.chk
%mem=8GB
%nprocshared=4
# B3LYP/6-311++G(d,p) empiricaldispersion=gd3bj scf=xqc pop=npa geom=check

CID_131025322_JID_3169_Energie_kation

1 2

--Link1--
%chk=JID_3169.chk
%mem=8GB
%nprocshared=4
# B3LYP/6-311++G(d,p) empiricaldispersion=gd3bj scf=xqc pop=npa geom=check

CID_131025322_JID_3169_Energie_anion

-1 2
