%chk=JID_3546.chk
%mem=8GB
%nprocshared=4
# opt freq B3LYP/6-31G(d) empiricaldispersion=gd3bj scf=xqc

CID_103154303_JID_3546_neutraal

0 1
C          1.06759       -0.07005       -0.02292
O          0.25117        0.90511       -0.65212
C         -0.08019        2.06668        0.13384
C         -0.94939        1.74904        1.35906
C         -0.23090        1.30876        2.61994
O          0.99013        1.30920        2.75106
N         -0.99670        0.91241        3.68011
C         -2.43552        0.71810        3.73941
C         -2.85783       -0.67824        3.28210
C         -2.35996       -1.78913        4.19835
O         -2.88079       -1.60500        5.50687
C          1.12958        2.99469        0.38646
N          1.66511        3.50820       -0.88339
H          0.52912       -0.56302        0.78985
H          2.00841        0.35463        0.33320
H          1.30798       -0.83417       -0.76803
H         -0.75250        2.62654       -0.53213
H         -1.50594        2.65646        1.62593
H         -1.66879        0.97249        1.07933
H         -0.45455        0.63987        4.49244
H         -2.74423        0.90513        4.77302
H         -2.92223        1.47075        3.11155
H         -3.95406       -0.70554        3.25983
H         -2.50236       -0.87085        2.26406
H         -2.70172       -2.75983        3.82489
H         -1.26699       -1.80358        4.25216
H         -2.58979       -2.36602        6.03967
H          0.83378        3.84456        1.00993
H          1.94505        2.46972        0.88815
H          2.59856        3.88316       -0.72355
H          1.77611        2.71523       -1.51939

--Link1--
%chk=JID_3546.chk
%mem=8GB
%nprocshared=4
# B3LYP/6-311++G(d,p) empiricaldispersion=gd3bj scf=xqc pop=npa geom=check

CID_103154303_JID_3546_Energie_neutraal

0 1

--Link1--
%chk=JID_3546.chk
%mem=8GB
%nprocshared=4
# B3LYP/6-311++G(d,p) empiricaldispersion=gd3bj scf=xqc pop=npa geom=check

CID_103154303_JID_3546_Energie_kation

1 2

--Link1--
%chk=JID_3546.chk
%mem=8GB
%nprocshared=4
# B3LYP/6-311++G(d,p) empiricaldispersion=gd3bj scf=xqc pop=npa geom=check

CID_103154303_JID_3546_Energie_anion

-1 2
