%chk=JID_4325.chk
%mem=8GB
%nprocshared=4
# opt freq B3LYP/6-31G(d) empiricaldispersion=gd3bj scf=xqc

CID_90402388_JID_4325_neutraal

0 1
C          0.99604        0.00214        0.09990
C          0.24458        0.84073        1.14957
C          0.88101        2.23473        1.22857
C         -1.23098        0.93561        0.74079
S          0.40356       -0.06371        2.77901
O          1.86163       -0.08477        3.12515
N         -0.43157        1.05984        3.68698
C         -1.46356        0.59704        4.64736
C         -2.76593        1.37431        4.67940
C         -2.75082       -0.02498        4.14747
C         -0.87157        0.14355        5.95433
N         -0.67650        1.04642        6.86283
O         -0.13458        0.46216        8.02032
N         -0.58444       -1.18588        6.05168
H          0.92844        0.46107       -0.89311
H          0.58323       -1.01085        0.02613
H          2.05978       -0.09356        0.34670
H          0.86433        2.72565        0.24862
H          0.35019        2.89207        1.92526
H          1.92604        2.18319        1.55409
H         -1.70735       -0.05135        0.72715
H         -1.80615        1.57238        1.42103
H         -1.33120        1.36618       -0.26225
H          0.19728        1.67100        4.21329
H         -3.23040        1.55075        5.64330
H         -2.89505        2.18772        3.97527
H         -2.88793       -0.15920        3.08202
H         -3.23001       -0.78813        4.74970
H          0.05281        1.24276        8.57400
H         -1.09071       -1.83890        5.47221
H         -0.39300       -1.48213        7.00195

--Link1--
%chk=JID_4325.chk
%mem=8GB
%nprocshared=4
# B3LYP/6-311++G(d,p) empiricaldispersion=gd3bj scf=xqc pop=npa geom=check

CID_90402388_JID_4325_Energie_neutraal

0 1

--Link1--
%chk=JID_4325.chk
%mem=8GB
%nprocshared=4
# B3LYP/6-311++G(d,p) empiricaldispersion=gd3bj scf=xqc pop=npa geom=check

CID_90402388_JID_4325_Energie_kation

1 2

--Link1--
%chk=JID_4325.chk
%mem=8GB
%nprocshared=4
# B3LYP/6-311++G(d,p) empiricaldispersion=gd3bj scf=xqc pop=npa geom=check

CID_90402388_JID_4325_Energie_anion

-1 2
