%chk=JID_7870.chk
%mem=8GB
%nprocshared=4
# opt freq B3LYP/6-31G(d) empiricaldispersion=gd3bj scf=xqc

CID_67086864_JID_7870_neutraal

0 1
C          0.97085        0.09355       -0.01996
C          0.65577        0.09795        1.49534
C          1.77143        0.93212        2.17384
C         -0.68339        0.83207        1.73285
N          0.56624       -1.37480        1.97704
C          1.91254       -1.97345        2.30888
C          1.18326       -2.73563        3.44289
C          0.27089       -1.47126        3.42369
C         -0.93119       -2.03929        4.14637
N         -0.20336       -2.71756        5.22656
C          1.21790       -2.91964        4.93814
C         -0.75788       -3.13303        6.40068
O         -0.17358       -3.68057        7.31738
O         -2.07098       -2.87505        6.46991
C         -0.29024       -2.17515        1.16929
O         -1.47799       -1.92717        1.16602
O          0.23548       -3.18021        0.46559
H          1.11403        1.11548       -0.39102
H          0.15961       -0.34262       -0.61251
H          1.88832       -0.46579       -0.23473
H          1.71945        1.97608        1.83777
H          1.69359        0.96201        3.26293
H          2.77407        0.58876        1.89949
H         -1.50145        0.42794        1.13093
H         -0.98414        0.80729        2.78493
H         -0.59821        1.88859        1.44999
H          2.35412       -2.58746        1.51921
H          2.68426       -1.30607        2.69913
H          0.75409       -3.66492        3.02616
H          0.66466       -0.62097        3.99970
H         -1.60071       -1.27185        4.54329
H         -1.49666       -2.79392        3.59244
H          1.80189       -2.15611        5.46266
H          1.54007       -3.91691        5.25057
H         -2.32618       -3.22748        7.34982
H         -0.52478       -3.58064       -0.01227

--Link1--
%chk=JID_7870.chk
%mem=8GB
%nprocshared=4
# B3LYP/6-311++G(d,p) empiricaldispersion=gd3bj scf=xqc pop=npa geom=check

CID_67086864_JID_7870_Energie_neutraal

0 1

--Link1--
%chk=JID_7870.chk
%mem=8GB
%nprocshared=4
# B3LYP/6-311++G(d,p) empiricaldispersion=gd3bj scf=xqc pop=npa geom=check

CID_67086864_JID_7870_Energie_kation

1 2

--Link1--
%chk=JID_7870.chk
%mem=8GB
%nprocshared=4
# B3LYP/6-311++G(d,p) empiricaldispersion=gd3bj scf=xqc pop=npa geom=check

CID_67086864_JID_7870_Energie_anion

-1 2
