%chk=JID_8230.chk
%mem=8GB
%nprocshared=4
# opt freq B3LYP/6-31G(d) empiricaldispersion=gd3bj scf=xqc

CID_17422817_JID_8230_neutraal

0 1
C          1.06560       -0.06271       -0.04200
C          0.53622        0.67809       -1.27292
C          1.01743        0.17146       -2.62583
C          1.37795       -1.16789       -2.84846
C          1.78609       -1.58433       -4.12375
C          1.84402       -0.68284       -5.19227
C          1.49040        0.64722       -4.97959
C          1.08098        1.06813       -3.71119
N          2.16346       -2.98289       -4.34304
O          2.51433       -3.64736       -3.35803
O          2.13284       -3.40818       -5.50762
S         -1.28416        0.89153       -1.21293
C         -1.88322       -0.68872       -1.56300
N         -1.31928       -1.83723       -1.27077
N         -2.13673       -2.84046       -1.73860
C         -3.18559       -2.27199       -2.28732
N         -3.07200       -0.91713       -2.19421
C         -4.02119        0.04428       -2.68539
H          0.71603       -1.09613        0.02789
H          0.77101        0.45117        0.88024
H          2.16138       -0.09416       -0.05928
H          0.93362        1.69771       -1.17574
H          1.31552       -1.89579       -2.04070
H          2.16140       -1.00114       -6.18283
H          1.53075        1.35901       -5.80106
H          0.80307        2.11254       -3.57234
H         -4.01966       -2.78376       -2.74655
H         -4.38008        0.64600       -1.84661
H         -3.53129        0.67308       -3.43320
H         -4.86477       -0.47716       -3.14572

--Link1--
%chk=JID_8230.chk
%mem=8GB
%nprocshared=4
# B3LYP/6-311++G(d,p) empiricaldispersion=gd3bj scf=xqc pop=npa geom=check

CID_17422817_JID_8230_Energie_neutraal

0 1

--Link1--
%chk=JID_8230.chk
%mem=8GB
%nprocshared=4
# B3LYP/6-311++G(d,p) empiricaldispersion=gd3bj scf=xqc pop=npa geom=check

CID_17422817_JID_8230_Energie_kation

1 2

--Link1--
%chk=JID_8230.chk
%mem=8GB
%nprocshared=4
# B3LYP/6-311++G(d,p) empiricaldispersion=gd3bj scf=xqc pop=npa geom=check

CID_17422817_JID_8230_Energie_anion

-1 2
