%chk=JID_9248.chk
%mem=8GB
%nprocshared=4
# opt freq B3LYP/6-31G(d) empiricaldispersion=gd3bj scf=xqc

CID_85845488_JID_9248_neutraal

0 1
C          1.34400       -0.22500        0.03600
C          1.10801        0.89524        0.83015
C         -0.19991        1.32271        1.06267
C         -1.28449        0.64073        0.49279
C         -1.03577       -0.49133       -0.29524
C          0.27302       -0.92089       -0.52262
C         -2.69398        1.10831        0.74881
O         -3.13242        0.63838        2.02331
C         -4.00660       -0.48862        1.92518
C         -5.41371       -0.05436        1.57873
C         -6.15233        0.69601        2.49285
C         -7.43422        1.13884        2.14395
C         -8.22205        1.89947        3.02384
C         -9.49349        2.33530        2.64456
C         -9.99313        2.01845        1.38374
C         -9.22350        1.26220        0.49892
C         -7.94221        0.81737        0.87195
C         -7.12509        0.06136        0.02922
N         -5.88401       -0.37695        0.34866
H          2.36226       -0.55988       -0.14248
H          1.94149        1.43449        1.27211
H         -0.37400        2.19190        1.69327
H         -1.86136       -1.04521       -0.73677
H          0.45681       -1.79983       -1.13488
H         -2.70794        2.20400        0.77899
H         -3.36305        0.81467       -0.06883
H         -3.62609       -1.22059        1.20329
H         -4.02221       -0.98337        2.90279
H         -5.72034        0.94310        3.45842
H         -7.84905        2.15947        4.01211
H        -10.09256        2.92429        3.33466
H        -10.98181        2.36107        1.08888
H         -9.62577        1.02390       -0.48294
H         -7.45649       -0.22031       -0.96690

--Link1--
%chk=JID_9248.chk
%mem=8GB
%nprocshared=4
# B3LYP/6-311++G(d,p) empiricaldispersion=gd3bj scf=xqc pop=npa geom=check

CID_85845488_JID_9248_Energie_neutraal

0 1

--Link1--
%chk=JID_9248.chk
%mem=8GB
%nprocshared=4
# B3LYP/6-311++G(d,p) empiricaldispersion=gd3bj scf=xqc pop=npa geom=check

CID_85845488_JID_9248_Energie_kation

1 2

--Link1--
%chk=JID_9248.chk
%mem=8GB
%nprocshared=4
# B3LYP/6-311++G(d,p) empiricaldispersion=gd3bj scf=xqc pop=npa geom=check

CID_85845488_JID_9248_Energie_anion

-1 2
