%chk=JID_5070.chk
%mem=8GB
%nprocshared=4
# opt freq B3LYP/6-31G(d) empiricaldispersion=gd3bj scf=xqc

CID_141794050_JID_5070_neutraal

0 1
C          1.07364        0.06458       -0.02016
C          0.55805        1.28320       -0.75092
C         -2.07352       -0.32889        1.95261
C         -1.46322       -0.41136        3.31463
C         -0.96073        0.60065        4.03993
C         -0.89562        2.00728        3.63143
C         -1.96012        2.84546        3.82866
N         -1.98479        4.17149        3.39606
C         -2.97115        5.11953        3.45764
C         -2.87654        6.38144        3.02862
C         -3.15085        2.36906        4.53520
C         -3.21155        2.16395        5.85778
C          0.24513        2.47066        2.83079
C          1.55118        2.35351        3.12081
C          2.16936        1.78712        4.35713
H          0.56515       -0.83727       -0.37398
H          0.90731        0.15068        1.05562
H          2.14725       -0.05853       -0.19149
H          0.71478        1.17884       -1.82870
H         -0.51259        1.41657       -0.57047
H          1.08025        2.18367       -0.41468
H         -2.03007        0.67383        1.51976
H         -3.12401       -0.63198        2.00050
H         -1.55443       -1.01194        1.27353
H         -1.44602       -1.40604        3.75564
H         -0.56313        0.39346        5.03097
H         -1.10278        4.50522        3.02125
H         -3.90570        4.78083        3.89852
H         -3.71986        7.05762        3.11997
H         -1.96789        6.76621        2.58023
H         -4.03189        2.21613        3.91734
H         -4.13045        1.82471        6.32270
H         -2.35177        2.33597        6.49718
H         -0.02568        2.92296        1.87695
H          2.26270        2.71886        2.38171
H          2.62054        0.81468        4.13766
H          2.96072        2.45695        4.70896
H          1.45839        1.66982        5.17807

--Link1--
%chk=JID_5070.chk
%mem=8GB
%nprocshared=4
# B3LYP/6-311++G(d,p) empiricaldispersion=gd3bj scf=xqc pop=npa geom=check

CID_141794050_JID_5070_Energie_neutraal

0 1

--Link1--
%chk=JID_5070.chk
%mem=8GB
%nprocshared=4
# B3LYP/6-311++G(d,p) empiricaldispersion=gd3bj scf=xqc pop=npa geom=check

CID_141794050_JID_5070_Energie_kation

1 2

--Link1--
%chk=JID_5070.chk
%mem=8GB
%nprocshared=4
# B3LYP/6-311++G(d,p) empiricaldispersion=gd3bj scf=xqc pop=npa geom=check

CID_141794050_JID_5070_Energie_anion

-1 2
