%chk=JID_8457.chk
%mem=8GB
%nprocshared=4
# opt freq B3LYP/6-31G(d) empiricaldispersion=gd3bj scf=xqc

CID_120162361_JID_8457_neutraal

0 1
C          1.06255       -0.04258        0.06538
O          0.83119       -0.00931        1.47035
C          2.02905        0.33083        2.18540
C          1.74072        0.22525        3.68996
N          1.40985       -1.16012        4.05637
C          0.28551       -1.25685        4.99558
C         -1.08374       -0.88244        4.38618
N         -1.27433       -1.43078        3.04781
C         -1.47008       -2.75738        2.72238
O         -1.11553       -3.14384        1.60908
C         -2.09796       -3.63941        3.70578
N         -1.62313       -4.87610        3.92690
O         -2.43483       -5.43245        4.89541
C         -3.40836       -4.54921        5.24437
C         -3.24443       -3.40029        4.50996
C         -4.47056       -4.85730        6.28301
C         -4.97888       -3.74648        7.17850
C         -5.86618       -4.29469        6.11400
H          0.12030       -0.28935       -0.43106
H          1.80008       -0.81208       -0.18176
H          1.40135        0.93542       -0.28945
H          2.84166       -0.34901        1.90235
H          2.31795        1.35756        1.93481
H          2.62229        0.53928        4.25809
H          0.92569        0.91602        3.93064
H          1.15202       -1.67037        3.20540
H          0.23950       -2.30091        5.32722
H          0.47587       -0.65849        5.89404
H         -1.88399       -1.21081        5.05212
H         -1.17300        0.20418        4.28621
H         -0.75615       -0.95008        2.31148
H         -3.85976       -2.51427        4.53208
H         -4.38722       -5.84642        6.72297
H         -5.20346       -3.99964        8.20932
H         -4.58856       -2.74331        7.05578
H         -6.08741       -3.67175        5.25542
H         -6.69757       -4.92286        6.41633

--Link1--
%chk=JID_8457.chk
%mem=8GB
%nprocshared=4
# B3LYP/6-311++G(d,p) empiricaldispersion=gd3bj scf=xqc pop=npa geom=check

CID_120162361_JID_8457_Energie_neutraal

0 1

--Link1--
%chk=JID_8457.chk
%mem=8GB
%nprocshared=4
# B3LYP/6-311++G(d,p) empiricaldispersion=gd3bj scf=xqc pop=npa geom=check

CID_120162361_JID_8457_Energie_kation

1 2

--Link1--
%chk=JID_8457.chk
%mem=8GB
%nprocshared=4
# B3LYP/6-311++G(d,p) empiricaldispersion=gd3bj scf=xqc pop=npa geom=check

CID_120162361_JID_8457_Energie_anion

-1 2
