%chk=JID_10717.chk
%mem=8GB
%nprocshared=4
# opt freq B3LYP/6-31G(d) empiricaldispersion=gd3bj scf=xqc

CID_43095146_JID_10717_neutraal

0 1
C          0.93641        0.04280        0.06422
C          0.43202       -1.38019       -0.14728
N          1.22127       -2.40339        0.53870
C          0.56145       -3.71144        0.62465
C         -0.16357       -4.21395       -0.62247
C          2.65870       -2.45872        0.23269
C          3.13865       -3.04337       -1.10411
C          3.01436       -2.11710       -2.25281
N          3.93705       -1.18873       -2.52928
O          3.43317       -0.57471       -3.67465
C          2.24866       -1.19938       -3.98463
N          1.97214       -2.17309       -3.13914
C          1.37620       -0.81112       -5.14406
C          1.73017        0.18938       -6.03121
S          0.52978        0.40621       -7.22704
C         -0.46694       -0.81588       -6.57517
C          0.09707       -1.41162       -5.45638
C         -0.54023       -2.51650       -4.67024
C         -1.77668       -1.11724       -7.22916
N          2.83933        0.96142       -6.06098
H          1.05914        0.26468        1.12947
H          0.21426        0.75754       -0.34462
H          1.89008        0.21907       -0.44144
H         -0.59157       -1.40746        0.24850
H          0.35501       -1.57818       -1.21982
H          1.27518       -4.47622        0.95587
H         -0.18002       -3.64975        1.43161
H          0.48905       -4.25584       -1.49691
H         -0.54359       -5.22560       -0.44419
H         -1.02462       -3.58442       -0.86848
H          3.10904       -1.47023        0.38432
H          3.11586       -3.07036        1.02349
H          4.20089       -3.30180       -0.99299
H          2.64125       -3.99227       -1.32300
H         -1.49954       -2.82342       -5.09761
H          0.10697       -3.39923       -4.65561
H         -0.72759       -2.19391       -3.64095
H         -2.01420       -0.41557       -8.03553
H         -1.76176       -2.12610       -7.65438
H         -2.58823       -1.06291       -6.49587
H          3.02641        1.53074       -6.88129
H          3.66235        0.74365       -5.50599

--Link1--
%chk=JID_10717.chk
%mem=8GB
%nprocshared=4
# B3LYP/6-311++G(d,p) empiricaldispersion=gd3bj scf=xqc pop=npa geom=check

CID_43095146_JID_10717_Energie_neutraal

0 1

--Link1--
%chk=JID_10717.chk
%mem=8GB
%nprocshared=4
# B3LYP/6-311++G(d,p) empiricaldispersion=gd3bj scf=xqc pop=npa geom=check

CID_43095146_JID_10717_Energie_kation

1 2

--Link1--
%chk=JID_10717.chk
%mem=8GB
%nprocshared=4
# B3LYP/6-311++G(d,p) empiricaldispersion=gd3bj scf=xqc pop=npa geom=check

CID_43095146_JID_10717_Energie_anion

-1 2
