%chk=JID_8974.chk
%mem=8GB
%nprocshared=4
# opt freq B3LYP/6-31G(d) empiricaldispersion=gd3bj scf=xqc

CID_81849117_JID_8974_neutraal

0 1
C          0.93367        0.06135        0.04284
C         -0.08781        0.76945        0.92281
C          0.54427        1.41989        2.13446
C          0.67932        0.65085        3.30482
C          1.24259        1.19069        4.46117
C          1.67823        2.51020        4.47001
C          1.56224        3.28503        3.31783
C          1.01558        2.75186        2.13482
C          0.92642        3.65666        0.92495
N         -0.31587        4.42139        0.97479
C         -0.73423        5.07733       -0.18957
C          0.14381        5.50950       -1.18219
C         -0.36660        6.14246       -2.30415
N         -1.66789        6.44704       -2.47710
C         -2.49127        6.10385       -1.46679
C         -2.07748        5.43550       -0.32294
O          0.54787        6.51048       -3.27016
C          0.00341        6.36728       -4.57762
H          1.68939        0.75787       -0.33421
H          0.43698       -0.39927       -0.81690
H          1.45355       -0.72765        0.59674
H         -0.64443        1.50848        0.33627
H         -0.84115        0.04342        1.25472
H          0.33891       -0.38284        3.32206
H          1.33497        0.58166        5.35644
H          2.10738        2.93835        5.37189
H          1.89919        4.32034        3.34139
H          1.78809        4.33633        0.92182
H          0.99636        3.06227        0.00716
H         -1.06703        3.90167        1.42295
H          1.21224        5.34751       -1.11897
H         -3.53134        6.38831       -1.59916
H         -2.80136        5.19505        0.44802
H         -0.31826        5.33390       -4.75202
H         -0.81774        7.06803       -4.75929
H          0.79888        6.59284       -5.29443

--Link1--
%chk=JID_8974.chk
%mem=8GB
%nprocshared=4
# B3LYP/6-311++G(d,p) empiricaldispersion=gd3bj scf=xqc pop=npa geom=check

CID_81849117_JID_8974_Energie_neutraal

0 1

--Link1--
%chk=JID_8974.chk
%mem=8GB
%nprocshared=4
# B3LYP/6-311++G(d,p) empiricaldispersion=gd3bj scf=xqc pop=npa geom=check

CID_81849117_JID_8974_Energie_kation

1 2

--Link1--
%chk=JID_8974.chk
%mem=8GB
%nprocshared=4
# B3LYP/6-311++G(d,p) empiricaldispersion=gd3bj scf=xqc pop=npa geom=check

CID_81849117_JID_8974_Energie_anion

-1 2
