%chk=JID_1638.chk
%mem=8GB
%nprocshared=4
# opt freq B3LYP/6-31G(d) empiricaldispersion=gd3bj scf=xqc

CID_130130102_JID_1638_neutraal

0 1
C          1.04063       -0.03536        0.08425
C          0.70816        0.31189        1.51357
C         -0.25950        1.20907        1.79202
C         -0.74286        1.65236        3.14770
C         -0.36641        3.08234        3.55120
C          1.13267        3.37747        3.59036
C          1.21471        4.90256        3.62982
C         -0.11529        5.41826        3.07720
C         -0.88944        4.18290        2.62964
C          1.55227       -0.39927        2.53659
O          1.17316       -1.76652        2.57676
H          0.42666        0.52143       -0.63159
H          0.87594       -1.10212       -0.09859
H          2.08905        0.19758       -0.12904
H         -0.79430        1.66329        0.95757
H         -1.83744        1.56694        3.14754
H         -0.40251        0.96563        3.92959
H         -0.77649        3.25721        4.55657
H          1.62296        2.91973        4.45517
H          1.63909        3.01519        2.68868
H          2.06386        5.26514        3.04125
H          1.35430        5.25551        4.65788
H          0.02855        6.12490        2.25388
H         -0.66479        5.94218        3.86818
H         -0.66183        3.97367        1.57848
H         -1.97090        4.32333        2.72056
H          2.61229       -0.34003        2.26869
H          1.45752        0.01402        3.54327
H          0.20279       -1.78070        2.63996

--Link1--
%chk=JID_1638.chk
%mem=8GB
%nprocshared=4
# B3LYP/6-311++G(d,p) empiricaldispersion=gd3bj scf=xqc pop=npa geom=check

CID_130130102_JID_1638_Energie_neutraal

0 1

--Link1--
%chk=JID_1638.chk
%mem=8GB
%nprocshared=4
# B3LYP/6-311++G(d,p) empiricaldispersion=gd3bj scf=xqc pop=npa geom=check

CID_130130102_JID_1638_Energie_kation

1 2

--Link1--
%chk=JID_1638.chk
%mem=8GB
%nprocshared=4
# B3LYP/6-311++G(d,p) empiricaldispersion=gd3bj scf=xqc pop=npa geom=check

CID_130130102_JID_1638_Energie_anion

-1 2
