%chk=JID_10477.chk
%mem=8GB
%nprocshared=4
# opt freq B3LYP/6-31G(d) empiricaldispersion=gd3bj scf=xqc

CID_128861478_JID_10477_neutraal

0 1
C          0.95382        0.05463       -0.06988
C          0.40239        1.16413       -0.96899
C          0.88602        1.01541       -2.41100
N         -1.06358        1.28872       -0.89239
C         -1.60389        2.51046       -0.29564
C         -3.04299        2.78245       -0.72018
N         -3.87334        1.63918       -0.36872
C         -3.40803        0.37080       -0.92563
C         -1.89425        0.20738       -1.17760
O         -1.47551       -0.85548       -1.64047
C         -5.04076        1.84668        0.34145
O         -5.36065        2.98766        0.70146
C         -5.95699        0.68052        0.75609
C         -6.54143       -0.08209       -0.42882
C         -5.30915       -0.18245        1.80942
C         -5.05912       -1.54289        1.85321
C         -4.41337       -1.76461        3.07915
N         -4.27482       -0.64370        3.78402
N         -4.85812        0.30014        3.02051
C         -4.93643        1.64850        3.53775
H          0.68823       -0.94380       -0.42913
H          0.57079        0.15680        0.95115
H          2.04715        0.10643       -0.02731
H          0.82229        2.10601       -0.59251
H          0.55913        0.07390       -2.86201
H          0.50172        1.83236       -3.03158
H          1.97994        1.04463       -2.45502
H         -0.98159        3.35814       -0.60261
H         -1.53315        2.39908        0.79255
H         -3.11000        2.91519       -1.80687
H         -3.39496        3.70593       -0.25107
H         -3.90610        0.25344       -1.89475
H         -3.70028       -0.45292       -0.27727
H         -6.82352        1.15486        1.24208
H         -5.82932       -0.76197       -0.90277
H         -7.39181       -0.69396       -0.10574
H         -6.90075        0.61049       -1.19764
H         -5.29267       -2.27856        1.09646
H         -4.03694       -2.69358        3.48765
H         -4.85097        1.62012        4.62763
H         -4.10995        2.22435        3.11520
H         -5.90123        2.08236        3.26787

--Link1--
%chk=JID_10477.chk
%mem=8GB
%nprocshared=4
# B3LYP/6-311++G(d,p) empiricaldispersion=gd3bj scf=xqc pop=npa geom=check

CID_128861478_JID_10477_Energie_neutraal

0 1

--Link1--
%chk=JID_10477.chk
%mem=8GB
%nprocshared=4
# B3LYP/6-311++G(d,p) empiricaldispersion=gd3bj scf=xqc pop=npa geom=check

CID_128861478_JID_10477_Energie_kation

1 2

--Link1--
%chk=JID_10477.chk
%mem=8GB
%nprocshared=4
# B3LYP/6-311++G(d,p) empiricaldispersion=gd3bj scf=xqc pop=npa geom=check

CID_128861478_JID_10477_Energie_anion

-1 2
