%chk=JID_5086.chk
%mem=8GB
%nprocshared=4
# opt freq B3LYP/6-31G(d) empiricaldispersion=gd3bj scf=xqc

CID_148620133_JID_5086_neutraal

0 1
C         -1.26300       -1.22900       -0.21900
C          0.19241       -1.58023        0.08057
C          1.14605       -0.90976       -0.90596
C          0.92633        0.60061       -0.96373
C         -0.53043        0.94259       -1.26665
C         -1.47984        0.29430       -0.24375
N         -2.87565        0.53832       -0.58589
C         -3.65099        1.53362        0.16173
C         -4.02723        1.08320        1.58496
C         -3.02475        1.45174        2.67732
C         -2.63136        2.92750        2.60260
C         -2.10715        3.31622        1.21927
C         -3.11697        2.97387        0.12424
S         -1.37430        3.30313        3.87180
O          2.49189       -1.18120       -0.53270
H         -1.54663       -1.67036       -1.18388
H         -1.90570       -1.68833        0.54258
H          0.33174       -2.66750        0.04864
H          0.44375       -1.27920        1.10595
H          0.99516       -1.33680       -1.90427
H          1.22661        1.05902       -0.01247
H          1.58219        1.04023       -1.72479
H         -0.77256        0.59876       -2.28107
H         -0.64755        2.03150       -1.26698
H         -1.22994        0.66866        0.74878
H         -2.96461        0.72010       -1.58609
H         -4.60456        1.56083       -0.38492
H         -4.98613        1.55498        1.84166
H         -4.21729        0.00277        1.60883
H         -2.14615        0.80210        2.61002
H         -3.48275        1.23729        3.65186
H         -3.50980        3.54166        2.83458
H         -1.14951        2.82822        1.01220
H         -1.91247        4.39600        1.18301
H         -2.69510        3.20475       -0.86105
H         -3.97434        3.65179        0.23923
H         -0.43559        2.45765        3.42209
H          2.63612       -0.83012        0.36247

--Link1--
%chk=JID_5086.chk
%mem=8GB
%nprocshared=4
# B3LYP/6-311++G(d,p) empiricaldispersion=gd3bj scf=xqc pop=npa geom=check

CID_148620133_JID_5086_Energie_neutraal

0 1

--Link1--
%chk=JID_5086.chk
%mem=8GB
%nprocshared=4
# B3LYP/6-311++G(d,p) empiricaldispersion=gd3bj scf=xqc pop=npa geom=check

CID_148620133_JID_5086_Energie_kation

1 2

--Link1--
%chk=JID_5086.chk
%mem=8GB
%nprocshared=4
# B3LYP/6-311++G(d,p) empiricaldispersion=gd3bj scf=xqc pop=npa geom=check

CID_148620133_JID_5086_Energie_anion

-1 2
