%chk=JID_3135.chk
%mem=8GB
%nprocshared=4
# opt freq B3LYP/6-31G(d) empiricaldispersion=gd3bj scf=xqc

CID_57098218_JID_3135_neutraal

0 1
C          1.00729       -0.09680       -0.02401
C          0.47557        0.04761       -1.44914
O          1.06422       -0.90063       -2.34183
C          2.29441       -0.66494       -2.87887
C          3.11362        0.38033       -2.71982
O         -0.96312       -0.02459       -1.46530
C         -1.53453       -1.21792       -1.18916
O         -0.95915       -2.24792       -0.88225
O         -2.87657       -1.05430       -1.28808
C         -3.77779       -2.16088       -1.03728
C         -3.56712       -3.29119       -2.05078
C         -3.66370       -2.65868        0.40814
C         -5.18287       -1.57387       -1.24244
H          0.91076       -1.12438        0.33974
H          0.45848        0.55342        0.66449
H          2.07176        0.14979        0.02942
H          0.68376        1.06290       -1.80464
H          2.56343       -1.50281       -3.51534
H          4.06980        0.39577       -3.23508
H          2.88570        1.23474       -2.09588
H         -2.60444       -3.79201       -1.91071
H         -4.34872       -4.05381       -1.96524
H         -3.57166       -2.90087       -3.07473
H         -3.72448       -1.82216        1.11337
H         -4.45793       -3.37425        0.64690
H         -2.70832       -3.15800        0.59526
H         -5.35875       -0.73602       -0.55756
H         -5.29330       -1.17217       -2.25650
H         -5.96493       -2.32303       -1.08014

--Link1--
%chk=JID_3135.chk
%mem=8GB
%nprocshared=4
# B3LYP/6-311++G(d,p) empiricaldispersion=gd3bj scf=xqc pop=npa geom=check

CID_57098218_JID_3135_Energie_neutraal

0 1

--Link1--
%chk=JID_3135.chk
%mem=8GB
%nprocshared=4
# B3LYP/6-311++G(d,p) empiricaldispersion=gd3bj scf=xqc pop=npa geom=check

CID_57098218_JID_3135_Energie_kation

1 2

--Link1--
%chk=JID_3135.chk
%mem=8GB
%nprocshared=4
# B3LYP/6-311++G(d,p) empiricaldispersion=gd3bj scf=xqc pop=npa geom=check

CID_57098218_JID_3135_Energie_anion

-1 2
