%chk=JID_4751.chk
%mem=8GB
%nprocshared=4
# opt freq B3LYP/6-31G(d) empiricaldispersion=gd3bj scf=xqc

CID_65967018_JID_4751_neutraal

0 1
C          0.72100        1.17000        0.25400
C         -0.78977        1.18663        0.02799
O         -1.37136       -0.06177        0.43045
C         -0.77319       -1.14740       -0.31593
C          0.74379       -1.15960       -0.07667
O          1.32857        0.09145       -0.47186
C         -1.40739       -2.47295        0.14383
N         -2.84674       -2.47958       -0.15675
C         -3.53588       -3.65811        0.37178
C         -3.67269       -3.64798        1.84767
C         -3.36076       -4.53549        2.85180
N         -3.70767       -4.00830        4.06968
C         -4.21412       -2.83536        3.76194
O         -4.23425       -2.54311        2.43274
H          1.16931        2.10604       -0.09186
H          0.95571        1.04802        1.31774
H         -1.02687        1.35795       -1.02834
H         -1.25470        1.98213        0.61770
H         -0.98041       -0.98074       -1.38146
H          1.22127       -1.95004       -0.66430
H          0.97937       -1.33036        0.98076
H         -0.92208       -3.31215       -0.36715
H         -1.24741       -2.58157        1.22302
H         -3.25787       -1.64115        0.26572
H         -4.54124       -3.68434       -0.06445
H         -3.03341       -4.57298        0.03623
H         -2.90841       -5.51344        2.76358
H         -4.61312       -2.08388        4.42838

--Link1--
%chk=JID_4751.chk
%mem=8GB
%nprocshared=4
# B3LYP/6-311++G(d,p) empiricaldispersion=gd3bj scf=xqc pop=npa geom=check

CID_65967018_JID_4751_Energie_neutraal

0 1

--Link1--
%chk=JID_4751.chk
%mem=8GB
%nprocshared=4
# B3LYP/6-311++G(d,p) empiricaldispersion=gd3bj scf=xqc pop=npa geom=check

CID_65967018_JID_4751_Energie_kation

1 2

--Link1--
%chk=JID_4751.chk
%mem=8GB
%nprocshared=4
# B3LYP/6-311++G(d,p) empiricaldispersion=gd3bj scf=xqc pop=npa geom=check

CID_65967018_JID_4751_Energie_anion

-1 2
