%chk=JID_9909.chk
%mem=8GB
%nprocshared=4
# opt freq B3LYP/6-31G(d) empiricaldispersion=gd3bj scf=xqc

CID_104528666_JID_9909_neutraal

0 1
C          0.98773       -0.06821       -0.07209
C          0.43967       -0.57179       -1.38132
O         -0.39355       -1.47392       -1.43181
C          0.89001        0.07881       -2.63461
C          2.24047        0.29092       -2.94477
C          2.53517        1.04847       -4.09245
C          1.54328        1.50531       -4.98048
C          0.22082        1.15579       -4.70389
C         -0.10963        0.46521       -3.53461
N          1.94136        2.17593       -6.13360
C          1.06797        3.09182       -6.86339
C          1.28031        4.55399       -6.43095
C          0.62612        5.49654       -7.45381
C          0.74434        6.94929       -7.00730
C          0.20299        7.13895       -5.59193
N          0.88819        6.24771       -4.64900
C          0.72071        4.83257       -5.02426
C          0.40446        6.47447       -3.28651
N          3.29698       -0.05381       -2.07987
H          0.16229        0.03250        0.63902
H          1.44581        0.91833       -0.18218
H          1.72136       -0.77745        0.31825
H          3.57530        1.28233       -4.30969
H         -0.58510        1.40899       -5.38454
H         -1.15231        0.23458       -3.32466
H          2.90533        2.49941       -6.09926
H          1.34581        3.00028       -7.92087
H          0.01017        2.81630       -6.81534
H          2.35963        4.76344       -6.41963
H         -0.43419        5.23995       -7.57476
H          1.09841        5.37721       -8.43599
H          0.19602        7.59486       -7.70267
H          1.79635        7.25964       -7.04544
H         -0.88050        6.96173       -5.58319
H          0.36513        8.18408       -5.30140
H          1.26261        4.21747       -4.29754
H         -0.33769        4.54294       -4.97565
H         -0.66555        6.25947       -3.18618
H          0.95108        5.84682       -2.57390
H          0.57762        7.51354       -2.98498
H          3.13334       -0.91672       -1.56643
H          4.20191       -0.08063       -2.54357

--Link1--
%chk=JID_9909.chk
%mem=8GB
%nprocshared=4
# B3LYP/6-311++G(d,p) empiricaldispersion=gd3bj scf=xqc pop=npa geom=check

CID_104528666_JID_9909_Energie_neutraal

0 1

--Link1--
%chk=JID_9909.chk
%mem=8GB
%nprocshared=4
# B3LYP/6-311++G(d,p) empiricaldispersion=gd3bj scf=xqc pop=npa geom=check

CID_104528666_JID_9909_Energie_kation

1 2

--Link1--
%chk=JID_9909.chk
%mem=8GB
%nprocshared=4
# B3LYP/6-311++G(d,p) empiricaldispersion=gd3bj scf=xqc pop=npa geom=check

CID_104528666_JID_9909_Energie_anion

-1 2
