%chk=JID_8518.chk
%mem=8GB
%nprocshared=4
# opt freq B3LYP/6-31G(d) empiricaldispersion=gd3bj scf=xqc

CID_61343656_JID_8518_neutraal

0 1
C          0.93188       -0.01238        0.07215
C          0.63854       -0.59040        1.45046
C          1.07373        0.32326        2.60742
C          0.36861        1.68735        2.54079
C          0.84189       -0.27659        4.02480
C          1.39233       -1.71810        4.36711
C          0.30350       -2.76390        3.93342
C          0.31445       -4.13282        4.61506
C          1.47686       -1.79455        5.91942
O          0.78359       -1.17175        6.71228
O          2.35580       -2.69884        6.40396
N          2.72834       -1.85480        3.70693
C          3.22311       -3.20407        3.41587
C          4.50352       -3.18810        2.53958
N          5.60417       -2.34259        3.03796
C          5.06713       -1.00787        3.36268
C          3.80646       -1.01219        4.26221
C          6.26881       -2.95219        4.18699
H          0.30570        0.85843       -0.14197
H          0.72373       -0.76129       -0.69915
H          1.98259        0.28111       -0.01709
H         -0.43020       -0.82082        1.52936
H          1.18282       -1.53647        1.50255
H          2.14615        0.52152        2.49097
H         -0.72037        1.56999        2.54922
H          0.64823        2.31378        3.39493
H          0.64678        2.23877        1.63764
H          1.27790        0.43926        4.73776
H         -0.23584       -0.24615        4.23963
H         -0.69446       -2.34452        4.11906
H          0.34612       -2.93195        2.85340
H          0.04962       -4.05118        5.67386
H         -0.43760       -4.77862        4.14847
H          1.27512       -4.64354        4.53938
H          2.24023       -2.63295        7.37431
H          3.42595       -3.75735        4.33868
H          2.48102       -3.76726        2.84197
H          4.22995       -2.82365        1.53971
H          4.85513       -4.21628        2.38745
H          4.81831       -0.50408        2.41867
H          5.84661       -0.39077        3.82664
H          3.48065        0.02802        4.36211
H          4.09354       -1.34628        5.26482
H          5.60348       -3.11502        5.04064
H          6.70148       -3.91869        3.90523
H          7.10304       -2.32486        4.52019

--Link1--
%chk=JID_8518.chk
%mem=8GB
%nprocshared=4
# B3LYP/6-311++G(d,p) empiricaldispersion=gd3bj scf=xqc pop=npa geom=check

CID_61343656_JID_8518_Energie_neutraal

0 1

--Link1--
%chk=JID_8518.chk
%mem=8GB
%nprocshared=4
# B3LYP/6-311++G(d,p) empiricaldispersion=gd3bj scf=xqc pop=npa geom=check

CID_61343656_JID_8518_Energie_kation

1 2

--Link1--
%chk=JID_8518.chk
%mem=8GB
%nprocshared=4
# B3LYP/6-311++G(d,p) empiricaldispersion=gd3bj scf=xqc pop=npa geom=check

CID_61343656_JID_8518_Energie_anion

-1 2
