%chk=JID_9753.chk
%mem=8GB
%nprocshared=4
# opt freq B3LYP/6-31G(d) empiricaldispersion=gd3bj scf=xqc

CID_63026784_JID_9753_neutraal

0 1
C          2.20000        0.01800       -0.02000
N          0.87118       -0.52145       -0.18168
C          0.57280       -1.85640       -0.22844
C         -0.79280       -1.91727       -0.34542
N         -1.33042       -0.65966       -0.36706
C         -0.31003        0.17997       -0.28990
C         -0.42861        1.67515       -0.26361
N         -0.85071        2.21237       -1.56946
C         -2.19439        1.81256       -1.99553
C          0.13275        2.75714       -2.39108
O          1.31029        2.75665       -2.00671
C         -0.22265        3.45236       -3.73639
C         -1.15241        4.66127       -3.52556
C         -0.40590        5.83615       -2.90938
O          0.69136        6.20424       -3.73533
C          1.66945        5.17259       -3.81736
C          1.06848        3.92777       -4.45570
C         -0.86178        2.42474       -4.65612
N         -1.39198        1.57224       -5.41912
H          2.90962       -0.79826        0.13889
H          2.46423        0.56270       -0.92868
H          2.20661        0.68013        0.84907
H          1.32757       -2.62819       -0.17332
H         -1.41692       -2.79904       -0.40992
H         -1.19339        1.95969        0.46936
H          0.49947        2.14867        0.06950
H         -2.87139        1.82965       -1.13612
H         -2.60628        2.47300       -2.75484
H         -2.14907        0.80323       -2.41413
H         -1.55263        4.97699       -4.49888
H         -2.01331        4.43487       -2.89240
H         -0.05383        5.61247       -1.89564
H         -1.07343        6.70119       -2.84032
H          2.08344        4.98123       -2.82221
H          2.49046        5.54368       -4.43963
H          1.82160        3.13071       -4.49708
H          0.82084        4.17534       -5.49810

--Link1--
%chk=JID_9753.chk
%mem=8GB
%nprocshared=4
# B3LYP/6-311++G(d,p) empiricaldispersion=gd3bj scf=xqc pop=npa geom=check

CID_63026784_JID_9753_Energie_neutraal

0 1

--Link1--
%chk=JID_9753.chk
%mem=8GB
%nprocshared=4
# B3LYP/6-311++G(d,p) empiricaldispersion=gd3bj scf=xqc pop=npa geom=check

CID_63026784_JID_9753_Energie_kation

1 2

--Link1--
%chk=JID_9753.chk
%mem=8GB
%nprocshared=4
# B3LYP/6-311++G(d,p) empiricaldispersion=gd3bj scf=xqc pop=npa geom=check

CID_63026784_JID_9753_Energie_anion

-1 2
