%chk=JID_10700.chk
%mem=8GB
%nprocshared=4
# opt freq B3LYP/6-31G(d) empiricaldispersion=gd3bj scf=xqc

CID_105673963_JID_10700_neutraal

0 1
C          1.01156       -0.09086        0.04013
C          0.59110        0.93550       -1.00301
C          1.39348        0.77233       -2.29274
N          0.58266        0.87319       -3.49506
C         -0.08807       -0.11924       -4.18515
C         -0.66204        0.52966       -5.26102
C         -0.30133        1.88165       -5.13291
N          0.45259        2.09774       -4.05463
O         -1.41259       -0.12178       -6.17794
C         -1.91186        0.71271       -7.21516
C         -0.17046       -1.57798       -3.79827
C          1.16033       -2.23624       -3.56388
C          1.70560       -3.08976       -2.41559
C          1.51789       -3.68206       -3.81610
C          0.81242       -5.00075       -3.55106
C         -0.61022       -4.83280       -2.99846
C         -0.36120       -4.36041       -1.55464
C          1.15651       -4.19497       -1.51216
C          1.56643       -5.45857       -2.29124
N         -1.09773       -1.66290       -2.69231
H          2.07667        0.00567        0.27457
H          0.82839       -1.11274       -0.30227
H          0.44723        0.06026        0.96576
H         -0.48702        0.85149       -1.17856
H          0.75765        1.94198       -0.60021
H          2.15995        1.55572       -2.35312
H          1.93533       -0.17258       -2.32105
H         -0.55097        2.72199       -5.76521
H         -2.57897        1.48393       -6.81482
H         -1.09403        1.16413       -7.78739
H         -2.49424        0.08747       -7.89859
H         -0.62484       -2.10932       -4.64381
H          1.90850       -1.58818       -4.03250
H          2.72102       -2.84720       -2.10749
H          2.41159       -3.85254       -4.41268
H          0.87907       -5.69471       -4.39182
H         -1.21882       -4.14411       -3.58546
H         -1.13283       -5.79648       -2.98033
H         -0.91514       -3.47468       -1.25669
H         -0.66986       -5.15218       -0.85909
H          1.56183       -4.15120       -0.49817
H          1.18513       -6.39044       -1.86036
H          2.64960       -5.53521       -2.43963
H         -0.73438       -1.17735       -1.88389
H         -1.96491       -1.19881       -2.95661

--Link1--
%chk=JID_10700.chk
%mem=8GB
%nprocshared=4
# B3LYP/6-311++G(d,p) empiricaldispersion=gd3bj scf=xqc pop=npa geom=check

CID_105673963_JID_10700_Energie_neutraal

0 1

--Link1--
%chk=JID_10700.chk
%mem=8GB
%nprocshared=4
# B3LYP/6-311++G(d,p) empiricaldispersion=gd3bj scf=xqc pop=npa geom=check

CID_105673963_JID_10700_Energie_kation

1 2

--Link1--
%chk=JID_10700.chk
%mem=8GB
%nprocshared=4
# B3LYP/6-311++G(d,p) empiricaldispersion=gd3bj scf=xqc pop=npa geom=check

CID_105673963_JID_10700_Energie_anion

-1 2
