%chk=JID_5139.chk
%mem=8GB
%nprocshared=4
# opt freq B3LYP/6-31G(d) empiricaldispersion=gd3bj scf=xqc

CID_53816544_JID_5139_neutraal

0 1
C         -1.49300       -0.72700       -0.12800
C         -1.62548        0.68959        0.40162
C         -0.29265        1.33616        0.04534
C          0.69546        0.19203        0.10920
C          2.04027        0.31876        0.03628
C          2.98147       -0.86387        0.14738
C          3.64873       -1.14237       -1.17838
O          4.86673       -1.22086       -1.31902
C          2.73244        1.66786       -0.08952
C          2.94781        2.13879       -1.49875
C          2.39457        1.71900       -2.64639
C          2.93400        2.44666       -3.83241
C          3.65712        3.63207       -3.20136
C          3.94685        3.22970       -1.75693
C         -0.06240       -1.10961        0.22607
H         -2.22497       -1.40764        0.31673
H         -1.63366       -0.74036       -1.21602
H         -1.76288        0.67606        1.49003
H         -2.47368        1.22148       -0.03947
H         -0.06084        2.14258        0.74650
H         -0.33317        1.73908       -0.97255
H          3.74955       -0.66584        0.90334
H          2.46973       -1.78134        0.45273
H          2.96975       -1.34585       -2.02422
H          2.17607        2.43972        0.45493
H          3.70435        1.61024        0.41804
H          1.65671        0.93382       -2.73541
H          2.13667        2.78169       -4.50206
H          3.62157        1.80378       -4.39136
H          4.56827        3.89849       -3.74664
H          3.00320        4.51400       -3.21495
H          4.96650        2.84510       -1.64719
H          3.81267        4.08109       -1.08254
H          0.30838       -1.88382       -0.45191
H         -0.01386       -1.47500        1.25805

--Link1--
%chk=JID_5139.chk
%mem=8GB
%nprocshared=4
# B3LYP/6-311++G(d,p) empiricaldispersion=gd3bj scf=xqc pop=npa geom=check

CID_53816544_JID_5139_Energie_neutraal

0 1

--Link1--
%chk=JID_5139.chk
%mem=8GB
%nprocshared=4
# B3LYP/6-311++G(d,p) empiricaldispersion=gd3bj scf=xqc pop=npa geom=check

CID_53816544_JID_5139_Energie_kation

1 2

--Link1--
%chk=JID_5139.chk
%mem=8GB
%nprocshared=4
# B3LYP/6-311++G(d,p) empiricaldispersion=gd3bj scf=xqc pop=npa geom=check

CID_53816544_JID_5139_Energie_anion

-1 2
