%chk=JID_8329.chk
%mem=8GB
%nprocshared=4
# opt freq B3LYP/6-31G(d) empiricaldispersion=gd3bj scf=xqc

CID_103183749_JID_8329_neutraal

0 1
C          1.09796        0.00008       -0.02012
C          0.52367       -1.20283        0.75017
C          1.33829       -1.30288        2.04827
C         -1.05250       -1.17020        0.91375
C         -1.69217       -0.58757       -0.39072
C         -1.67148       -2.61448        1.00792
C         -1.08358       -3.66281        1.95104
O         -1.44711       -3.39789        3.29876
C         -0.63842       -4.07731        4.26607
C         -0.92316       -5.57649        4.37385
C         -0.08035       -6.44786        3.44490
O          1.30304       -6.16651        3.64550
C          2.12571       -6.88624        2.73658
C         -1.55760       -0.22388        2.05425
N         -1.22227       -0.62830        3.41049
C         -1.67737        0.20183        4.52703
C         -1.96909        1.67012        4.40935
C         -3.09260        0.69489        4.63098
H          0.82020        0.94842        0.45111
H          0.75935        0.01444       -1.06043
H          2.19269       -0.04548       -0.05562
H          0.76562       -2.09082        0.14981
H          1.33309       -0.35700        2.60060
H          0.98966       -2.08841        2.71499
H          2.38623       -1.52911        1.81788
H         -1.33789       -1.12114       -1.28023
H         -2.78521       -0.67804       -0.36926
H         -1.46838        0.47724       -0.51780
H         -2.74192       -2.51366        1.23476
H         -1.61331       -3.06047        0.00461
H         -1.53337       -4.62364        1.67931
H         -0.00241       -3.75923        1.82283
H          0.42074       -3.85439        4.10294
H         -0.90233       -3.61965        5.22655
H         -0.68620       -5.87908        5.40176
H         -1.98560       -5.77865        4.20001
H         -0.26618       -7.50365        3.67455
H         -0.34407       -6.28149        2.39737
H          1.99200       -7.96394        2.86893
H          1.89585       -6.60088        1.70524
H          3.16926       -6.63355        2.94240
H         -1.14634        0.77483        1.86742
H         -2.64787       -0.14169        1.96797
H         -1.49931       -1.60851        3.55026
H         -1.22241       -0.10412        5.46904
H         -1.67501        2.30436        5.23810
H         -1.90575        2.16149        3.44817
H         -3.78124        0.51873        3.81523
H         -3.56112        0.67543        5.60813

--Link1--
%chk=JID_8329.chk
%mem=8GB
%nprocshared=4
# B3LYP/6-311++G(d,p) empiricaldispersion=gd3bj scf=xqc pop=npa geom=check

CID_103183749_JID_8329_Energie_neutraal

0 1

--Link1--
%chk=JID_8329.chk
%mem=8GB
%nprocshared=4
# B3LYP/6-311++G(d,p) empiricaldispersion=gd3bj scf=xqc pop=npa geom=check

CID_103183749_JID_8329_Energie_kation

1 2

--Link1--
%chk=JID_8329.chk
%mem=8GB
%nprocshared=4
# B3LYP/6-311++G(d,p) empiricaldispersion=gd3bj scf=xqc pop=npa geom=check

CID_103183749_JID_8329_Energie_anion

-1 2
