%chk=JID_6708.chk
%mem=8GB
%nprocshared=4
# opt freq B3LYP/6-31G(d) empiricaldispersion=gd3bj scf=xqc

CID_106371944_JID_6708_neutraal

0 1
C          0.99072       -0.07828       -0.06153
C          0.28544       -1.30584       -0.62049
C          1.03423       -2.60271       -0.32065
N          0.99849       -2.94058        1.08998
C          0.31503       -3.90002        1.77850
O          0.43284       -3.90094        3.00853
C         -0.57311       -4.94704        1.06778
C         -1.76042       -4.28344        0.37229
N          0.27915       -5.84682        0.26508
C         -0.44745       -6.91037       -0.44301
C         -1.01053       -6.49418       -1.76794
N         -2.15791       -6.82975       -2.32516
C         -2.16775       -6.13334       -3.50653
C         -1.01957       -5.38725       -3.62271
O         -0.25932       -5.61555       -2.51076
C         -0.48585       -4.44997       -4.62298
H          1.04095       -0.11015        1.03114
H          0.44858        0.82925       -0.34572
H          2.01043        0.00057       -0.45171
H         -0.73338       -1.35217       -0.21921
H          0.20156       -1.19153       -1.70761
H          0.61014       -3.40427       -0.92214
H          2.08919       -2.50859       -0.59947
H          1.54497       -2.36001        1.71565
H         -0.98876       -5.55576        1.88324
H         -1.49272       -3.81849       -0.57900
H         -2.55349       -5.01208        0.17376
H         -2.19048       -3.49958        1.00593
H          0.82491       -5.32298       -0.41436
H          0.26320       -7.72277       -0.63452
H         -1.23529       -7.33440        0.18998
H         -2.99548       -6.20099       -4.19890
H         -0.52279       -3.42513       -4.24063
H          0.55414       -4.69035       -4.86360
H         -1.06756       -4.49024       -5.54891

--Link1--
%chk=JID_6708.chk
%mem=8GB
%nprocshared=4
# B3LYP/6-311++G(d,p) empiricaldispersion=gd3bj scf=xqc pop=npa geom=check

CID_106371944_JID_6708_Energie_neutraal

0 1

--Link1--
%chk=JID_6708.chk
%mem=8GB
%nprocshared=4
# B3LYP/6-311++G(d,p) empiricaldispersion=gd3bj scf=xqc pop=npa geom=check

CID_106371944_JID_6708_Energie_kation

1 2

--Link1--
%chk=JID_6708.chk
%mem=8GB
%nprocshared=4
# B3LYP/6-311++G(d,p) empiricaldispersion=gd3bj scf=xqc pop=npa geom=check

CID_106371944_JID_6708_Energie_anion

-1 2
