%chk=JID_1118.chk
%mem=8GB
%nprocshared=4
# opt freq B3LYP/6-31G(d) empiricaldispersion=gd3bj scf=xqc

CID_148776406_JID_1118_neutraal

0 1
C          1.05244        0.00714       -0.08485
C          0.64976       -1.24890       -0.84742
C          1.05250       -2.56490       -0.23790
C          0.57821       -3.74577       -0.80861
N          0.86918       -4.98889       -0.37148
C          1.70464       -5.09380        0.69278
C          2.22524       -3.97371        1.33288
C          1.90032       -2.70104        0.86048
S          2.11402       -6.71669        1.33294
O          2.21143       -7.71757        0.20619
O          3.31602       -6.61613        2.24557
H          0.64004        0.00682        0.92963
H          0.67557        0.89625       -0.60097
H          2.14127        0.10025       -0.01533
H         -0.44222       -1.23967       -0.95613
H          1.07838       -1.19265       -1.85573
H         -0.07939       -3.72684       -1.67337
H          2.88934       -4.09434        2.18337
H          2.32819       -1.84177        1.36557

--Link1--
%chk=JID_1118.chk
%mem=8GB
%nprocshared=4
# B3LYP/6-311++G(d,p) empiricaldispersion=gd3bj scf=xqc pop=npa geom=check

CID_148776406_JID_1118_Energie_neutraal

0 1

--Link1--
%chk=JID_1118.chk
%mem=8GB
%nprocshared=4
# B3LYP/6-311++G(d,p) empiricaldispersion=gd3bj scf=xqc pop=npa geom=check

CID_148776406_JID_1118_Energie_kation

1 2

--Link1--
%chk=JID_1118.chk
%mem=8GB
%nprocshared=4
# B3LYP/6-311++G(d,p) empiricaldispersion=gd3bj scf=xqc pop=npa geom=check

CID_148776406_JID_1118_Energie_anion

-1 2
