%chk=JID_6162.chk
%mem=8GB
%nprocshared=4
# opt freq B3LYP/6-31G(d) empiricaldispersion=gd3bj scf=xqc

CID_79185352_JID_6162_neutraal

0 1
C          0.93334        0.02574       -0.06995
C         -0.36128       -0.39827        0.56539
C         -1.11911        0.47827        1.24730
C         -0.75812       -1.85381        0.44064
N         -0.75988       -2.39472       -0.92122
C         -0.09238       -3.54248       -1.28011
C         -0.39148       -3.83819       -2.59706
C         -1.27060       -2.80519       -3.05664
C         -1.91003       -2.55655       -4.29014
C         -2.74614       -1.44544       -4.42944
C         -2.96148       -0.58873       -3.35627
C         -2.34974       -0.81723       -2.12009
C         -1.49868       -1.92782       -1.99070
C          0.10052       -5.01226       -3.38283
N         -0.99426       -5.97488       -3.49159
C         -0.56493       -7.19342       -4.15651
H          1.18071        1.06790        0.15896
H          0.88274       -0.06904       -1.15889
H          1.75632       -0.59650        0.29650
H         -2.04985        0.18042        1.72229
H         -0.83178        1.52116        1.34855
H         -0.06152       -2.45989        1.03282
H         -1.76524       -2.03773        0.83445
H          0.52890       -4.07067       -0.56860
H         -1.76072       -3.23449       -5.12570
H         -3.23507       -1.25797       -5.38152
H         -3.61706        0.27014       -3.47674
H         -2.53171       -0.14085       -1.29245
H          0.42598       -4.68262       -4.37628
H          0.96347       -5.46107       -2.87582
H         -1.33355       -6.18968       -2.55519
H          0.22718       -7.70094       -3.59668
H         -1.41213       -7.88179       -4.23787
H         -0.21120       -6.98785       -5.17199

--Link1--
%chk=JID_6162.chk
%mem=8GB
%nprocshared=4
# B3LYP/6-311++G(d,p) empiricaldispersion=gd3bj scf=xqc pop=npa geom=check

CID_79185352_JID_6162_Energie_neutraal

0 1

--Link1--
%chk=JID_6162.chk
%mem=8GB
%nprocshared=4
# B3LYP/6-311++G(d,p) empiricaldispersion=gd3bj scf=xqc pop=npa geom=check

CID_79185352_JID_6162_Energie_kation

1 2

--Link1--
%chk=JID_6162.chk
%mem=8GB
%nprocshared=4
# B3LYP/6-311++G(d,p) empiricaldispersion=gd3bj scf=xqc pop=npa geom=check

CID_79185352_JID_6162_Energie_anion

-1 2
