%chk=JID_6914.chk
%mem=8GB
%nprocshared=4
# opt freq B3LYP/6-31G(d) empiricaldispersion=gd3bj scf=xqc

CID_106676022_JID_6914_neutraal

0 1
C          0.92048        0.04805       -0.03699
C          1.33730        1.49656        0.16683
N          1.81796        2.09739       -1.08214
C          0.81679        2.86335       -1.87227
C          0.60348        4.33580       -1.44166
C          1.62630        5.44600       -1.79713
C          1.64155        5.74731       -3.30177
C          1.18638        6.72231       -1.04769
O          2.89890        5.00614       -1.31966
C          3.99964        5.89163       -1.46485
C          0.66389        2.58475       -3.37377
O          0.00748        3.24726       -4.16381
O          1.21582        1.42290       -3.77844
C          3.18047        1.98792       -1.33255
O          3.94075        1.40737       -0.54885
C          3.75697        2.48630       -2.63075
H          0.11864       -0.02997       -0.77840
H          0.56044       -0.38014        0.90343
H          1.76079       -0.55853       -0.39006
H          0.49635        2.08241        0.55427
H          2.12075        1.54215        0.93171
H         -0.12613        2.39122       -1.54468
H         -0.37801        4.65322       -1.82282
H          0.50471        4.32277       -0.34649
H          0.63027        5.92304       -3.68371
H          2.22743        6.64727       -3.52069
H          2.10138        4.94353       -3.87982
H          1.28227        6.59162        0.03622
H          1.80626        7.58439       -1.31670
H          0.14763        6.98380       -1.27771
H          4.18695        6.12536       -2.51557
H          3.85519        6.80659       -0.88565
H          4.88722        5.38705       -1.07198
H          0.97182        1.34696       -4.72419
H          3.90766        1.63495       -3.30030
H          3.13846        3.22147       -3.13089
H          4.72627        2.95292       -2.42987

--Link1--
%chk=JID_6914.chk
%mem=8GB
%nprocshared=4
# B3LYP/6-311++G(d,p) empiricaldispersion=gd3bj scf=xqc pop=npa geom=check

CID_106676022_JID_6914_Energie_neutraal

0 1

--Link1--
%chk=JID_6914.chk
%mem=8GB
%nprocshared=4
# B3LYP/6-311++G(d,p) empiricaldispersion=gd3bj scf=xqc pop=npa geom=check

CID_106676022_JID_6914_Energie_kation

1 2

--Link1--
%chk=JID_6914.chk
%mem=8GB
%nprocshared=4
# B3LYP/6-311++G(d,p) empiricaldispersion=gd3bj scf=xqc pop=npa geom=check

CID_106676022_JID_6914_Energie_anion

-1 2
