%chk=JID_10434.chk
%mem=8GB
%nprocshared=4
# opt freq B3LYP/6-31G(d) empiricaldispersion=gd3bj scf=xqc

CID_60957909_JID_10434_neutraal

0 1
C          2.49200        0.00400       -0.01400
C          1.07203        0.35350       -0.34356
C          0.27010       -0.51673       -1.08843
C         -1.06402       -0.19457       -1.34916
C         -1.61956        0.98350       -0.84826
C         -0.81875        1.86630       -0.12975
C          0.51678        1.54673        0.13212
O         -2.93815        1.18699       -1.14609
C         -3.74140        1.82096       -0.13521
C         -3.99191        0.88086        1.04634
C         -3.11548        1.21405        2.24313
O         -2.69872        2.36206        2.41387
N         -2.86619        0.20386        3.16690
C         -1.81181        0.41569        4.15507
C         -0.54804       -0.32911        3.72009
C         -0.83700       -1.82188        3.44707
C         -2.04570       -1.99397        2.50674
C         -3.24523       -1.19655        3.01314
C          0.39149       -2.53062        2.87383
O          1.45529       -2.48132        3.81486
H          2.56045       -0.35074        1.01906
H          2.87195       -0.78070       -0.67644
H          3.14099        0.87742       -0.13633
H          0.67579       -1.44894       -1.47342
H         -1.67903       -0.87385       -1.93341
H         -1.20383        2.81045        0.24269
H          1.11950        2.23978        0.71550
H         -3.35832        2.81216        0.12535
H         -4.70671        2.00114       -0.62353
H         -5.02684        0.99107        1.39024
H         -3.83668       -0.14697        0.71237
H         -2.16996        0.03634        5.11927
H         -1.59051        1.47982        4.28338
H          0.21916       -0.22456        4.49569
H         -0.15137        0.13646        2.80974
H         -1.08020       -2.28503        4.41354
H         -1.77931       -1.65422        1.49820
H         -2.31428       -3.05397        2.43178
H         -4.10449       -1.31559        2.35049
H         -3.55842       -1.56647        3.99719
H          0.16812       -3.58289        2.66900
H          0.72423       -2.05796        1.94422
H          2.21879       -2.92350        3.40571

--Link1--
%chk=JID_10434.chk
%mem=8GB
%nprocshared=4
# B3LYP/6-311++G(d,p) empiricaldispersion=gd3bj scf=xqc pop=npa geom=check

CID_60957909_JID_10434_Energie_neutraal

0 1

--Link1--
%chk=JID_10434.chk
%mem=8GB
%nprocshared=4
# B3LYP/6-311++G(d,p) empiricaldispersion=gd3bj scf=xqc pop=npa geom=check

CID_60957909_JID_10434_Energie_kation

1 2

--Link1--
%chk=JID_10434.chk
%mem=8GB
%nprocshared=4
# B3LYP/6-311++G(d,p) empiricaldispersion=gd3bj scf=xqc pop=npa geom=check

CID_60957909_JID_10434_Energie_anion

-1 2
