%chk=JID_9114.chk
%mem=8GB
%nprocshared=4
# opt freq B3LYP/6-31G(d) empiricaldispersion=gd3bj scf=xqc

CID_45491859_JID_9114_neutraal

0 1
C         -2.55700       -0.42200       -0.01100
C         -1.11973       -0.35851        0.35814
C         -0.11796       -1.26876        0.06401
S          1.38478       -0.66791        0.63541
C          0.60271        0.73811        1.23476
N         -0.69524        0.76656        1.05010
N          1.32936        1.72109        1.81697
C          0.75377        3.05622        1.84182
C          1.68041        4.04837        2.55161
C          3.04273        4.30137        1.87293
C          2.90500        4.77410        0.42540
C          3.83468        5.33433        2.68027
C         -0.13682       -2.51045       -0.67287
O          0.68919       -2.79699       -1.54112
N         -1.12435       -3.43909       -0.43312
C         -1.85415       -3.65792        0.80563
C         -3.32511       -4.01348        0.54087
C         -3.46982       -5.36499       -0.16313
C         -4.10856       -4.02456        1.85360
H         -2.93739        0.58053       -0.23332
H         -2.71861       -1.03811       -0.90016
H         -3.14549       -0.82969        0.81580
H          2.32415        1.67849        1.62896
H          0.53249        3.40004        0.82493
H         -0.19762        3.03504        2.38868
H          1.14544        5.00307        2.64085
H          1.85717        3.69524        3.57612
H          3.62418        3.37190        1.87424
H          2.26785        5.66207        0.35595
H          3.88425        5.02733        0.00454
H          2.47545        3.99272       -0.20887
H          3.97241        4.99875        3.71354
H          4.82787        5.48968        2.24553
H          3.32025        6.30120        2.70249
H         -0.96987       -4.25784       -1.00980
H         -1.34765       -4.47933        1.32637
H         -1.77435       -2.78405        1.45602
H         -3.76586       -3.24793       -0.10989
H         -3.02199       -6.17115        0.42762
H         -4.52621       -5.60833       -0.32053
H         -2.98793       -5.35520       -1.14587
H         -4.05438       -3.04846        2.34708
H         -5.16566       -4.24757        1.67354
H         -3.71567       -4.77773        2.54487

--Link1--
%chk=JID_9114.chk
%mem=8GB
%nprocshared=4
# B3LYP/6-311++G(d,p) empiricaldispersion=gd3bj scf=xqc pop=npa geom=check

CID_45491859_JID_9114_Energie_neutraal

0 1

--Link1--
%chk=JID_9114.chk
%mem=8GB
%nprocshared=4
# B3LYP/6-311++G(d,p) empiricaldispersion=gd3bj scf=xqc pop=npa geom=check

CID_45491859_JID_9114_Energie_kation

1 2

--Link1--
%chk=JID_9114.chk
%mem=8GB
%nprocshared=4
# B3LYP/6-311++G(d,p) empiricaldispersion=gd3bj scf=xqc pop=npa geom=check

CID_45491859_JID_9114_Energie_anion

-1 2
