%chk=JID_8378.chk
%mem=8GB
%nprocshared=4
# opt freq B3LYP/6-31G(d) empiricaldispersion=gd3bj scf=xqc

CID_65282913_JID_8378_neutraal

0 1
C          0.99772       -0.09993       -0.00308
C          0.61315       -1.47345        0.60020
C         -0.92835       -1.47744        0.76181
C         -1.57428       -2.73911        1.33474
C         -1.28837       -3.99882        0.52604
N          0.02945       -4.53929        0.82614
C          1.19584       -3.99768        0.13687
C          1.08044       -2.56580       -0.39606
C          0.11616       -5.56151        1.79131
O         -0.85698       -5.92784        2.45281
C          1.42555       -6.25728        2.00090
C          1.93628       -6.44512        3.28578
C          3.11859       -7.16746        3.42664
C          3.74674       -7.67622        2.29202
C          3.17357       -7.43730        1.05287
N          2.03313       -6.73920        0.87586
O          1.33845       -5.90919        4.38861
C          1.31395       -1.59463        1.96429
H          0.66598        0.72374        0.63943
H          0.54142        0.04146       -0.98950
H          2.08345       -0.00854       -0.12205
H         -1.22271       -0.63589        1.40381
H         -1.38914       -1.27713       -0.21561
H         -2.65953       -2.57603        1.34073
H         -1.27842       -2.87485        2.38147
H         -1.37732       -3.82915       -0.55257
H         -2.04737       -4.74911        0.77672
H          1.39647       -4.66299       -0.71150
H          2.06567       -4.05508        0.80010
H          0.42321       -2.55695       -1.27575
H          2.07483       -2.29884       -0.78035
H          3.56431       -7.33358        4.40247
H          4.66737       -8.24481        2.37177
H          3.63090       -7.81627        0.14272
H          1.68168       -6.33938        5.18824
H          2.40339       -1.56854        1.84792
H          1.03230       -0.76595        2.62420
H          1.06040       -2.52148        2.48635

--Link1--
%chk=JID_8378.chk
%mem=8GB
%nprocshared=4
# B3LYP/6-311++G(d,p) empiricaldispersion=gd3bj scf=xqc pop=npa geom=check

CID_65282913_JID_8378_Energie_neutraal

0 1

--Link1--
%chk=JID_8378.chk
%mem=8GB
%nprocshared=4
# B3LYP/6-311++G(d,p) empiricaldispersion=gd3bj scf=xqc pop=npa geom=check

CID_65282913_JID_8378_Energie_kation

1 2

--Link1--
%chk=JID_8378.chk
%mem=8GB
%nprocshared=4
# B3LYP/6-311++G(d,p) empiricaldispersion=gd3bj scf=xqc pop=npa geom=check

CID_65282913_JID_8378_Energie_anion

-1 2
