%chk=JID_2843.chk
%mem=8GB
%nprocshared=4
# opt freq B3LYP/6-31G(d) empiricaldispersion=gd3bj scf=xqc

CID_89639563_JID_2843_neutraal

0 1
C          1.03339       -0.07328       -0.05929
C          0.61925       -0.23872        1.41885
C          1.22483        0.95686        2.19327
C         -0.91589       -0.11527        1.53574
C          1.08775       -1.60861        1.94908
C          1.96117       -1.78882        2.96757
C          2.37993       -3.11755        3.44110
C          3.26297       -3.17119        4.45339
N          1.81964       -4.23534        2.79210
C          0.92917       -4.02429        1.74269
C          0.55534       -2.81241        1.30867
C          2.16263       -5.60432        3.18696
H          0.75002        0.91506       -0.44015
H          0.55407       -0.81391       -0.70854
H          2.11826       -0.17617       -0.17970
H          0.86417        1.91136        1.79107
H          0.94922        0.93061        3.25400
H          2.31856        0.97204        2.12127
H         -1.43962       -0.84761        0.91205
H         -1.24628       -0.26058        2.57097
H         -1.25757        0.87600        1.21496
H          2.39509       -0.93981        3.48372
H          3.66162       -2.27365        4.91440
H          3.62048       -4.11039        4.85608
H          0.53943       -4.92333        1.27538
H         -0.14069       -2.72569        0.48322
H          1.61576       -6.35246        2.60177
H          3.23182       -5.78964        3.03636
H          1.91468       -5.77437        4.24052

--Link1--
%chk=JID_2843.chk
%mem=8GB
%nprocshared=4
# B3LYP/6-311++G(d,p) empiricaldispersion=gd3bj scf=xqc pop=npa geom=check

CID_89639563_JID_2843_Energie_neutraal

0 1

--Link1--
%chk=JID_2843.chk
%mem=8GB
%nprocshared=4
# B3LYP/6-311++G(d,p) empiricaldispersion=gd3bj scf=xqc pop=npa geom=check

CID_89639563_JID_2843_Energie_kation

1 2

--Link1--
%chk=JID_2843.chk
%mem=8GB
%nprocshared=4
# B3LYP/6-311++G(d,p) empiricaldispersion=gd3bj scf=xqc pop=npa geom=check

CID_89639563_JID_2843_Energie_anion

-1 2
