%chk=JID_5851.chk
%mem=8GB
%nprocshared=4
# opt freq B3LYP/6-31G(d) empiricaldispersion=gd3bj scf=xqc

CID_87309589_JID_5851_neutraal

0 1
C          1.00942        0.06034        0.07918
C          0.68155        0.54942        1.47885
C          1.06797        2.00928        1.72525
C          0.41612        3.04988        0.81021
C         -1.11522        3.04462        0.70781
C         -1.93106        3.64450        1.86379
C         -1.91074        2.85503        3.18599
S         -0.96522        3.83525        4.40994
C         -1.02906        5.28835        3.40819
C         -0.64977        6.49122        3.89672
C         -0.18123        6.63991        5.33504
N          0.20746        6.76326        6.52824
C         -0.83305        7.72348        3.02588
N         -0.98510        8.74573        2.30344
N         -1.52397        5.01574        2.15124
H          0.40844        0.57464       -0.67653
H          0.79997       -1.01101       -0.00356
H          2.06721        0.21699       -0.15456
H         -0.38309        0.39142        1.67687
H          1.22352       -0.07424        2.20030
H          0.86240        2.25115        2.77029
H          2.15650        2.10248        1.61539
H          0.76554        4.04601        1.10623
H          0.81237        2.89765       -0.20238
H         -1.36377        3.63034       -0.18892
H         -1.47691        2.03142        0.49982
H         -2.97392        3.67271        1.52083
H         -2.93160        2.76216        3.57325
H         -1.50616        1.84633        3.08830
H         -1.62902        5.73909        1.44631

--Link1--
%chk=JID_5851.chk
%mem=8GB
%nprocshared=4
# B3LYP/6-311++G(d,p) empiricaldispersion=gd3bj scf=xqc pop=npa geom=check

CID_87309589_JID_5851_Energie_neutraal

0 1

--Link1--
%chk=JID_5851.chk
%mem=8GB
%nprocshared=4
# B3LYP/6-311++G(d,p) empiricaldispersion=gd3bj scf=xqc pop=npa geom=check

CID_87309589_JID_5851_Energie_kation

1 2

--Link1--
%chk=JID_5851.chk
%mem=8GB
%nprocshared=4
# B3LYP/6-311++G(d,p) empiricaldispersion=gd3bj scf=xqc pop=npa geom=check

CID_87309589_JID_5851_Energie_anion

-1 2
