%chk=JID_7200.chk
%mem=8GB
%nprocshared=4
# opt freq B3LYP/6-31G(d) empiricaldispersion=gd3bj scf=xqc

CID_134891672_JID_7200_neutraal

0 1
C          0.93615        0.05694       -0.05178
N          0.10374       -0.11073       -1.25725
C         -0.50071       -1.43440       -1.34948
C          0.17022        0.77397       -2.28823
N          0.52969        2.01150       -2.22737
N         -0.14036        0.29705       -3.51420
C         -1.03493       -0.98728        2.86804
N         -1.10470       -2.39206        3.30347
C         -0.25621       -2.58522        4.48969
C         -0.93350       -3.30568        2.30242
N          0.11778       -3.59079        1.62993
N         -2.06423       -4.00908        2.06530
O          2.30557       -1.99446        2.39834
S          3.21369       -0.84441        2.56726
O          4.10132       -0.74880        1.39791
O          2.40576        0.38477        2.67045
O          4.00619       -1.01860        3.79444
H          0.94673       -0.85574        0.54456
H          0.54016        0.87051        0.56318
H          1.96812        0.28674       -0.33534
H         -1.34197       -1.44424       -2.05093
H          0.23980       -2.16998       -1.67957
H         -0.90519       -1.74980       -0.38288
H          0.75256        2.19982       -1.24302
H          0.34656       -0.57476       -3.67371
H          0.15385        0.99587       -4.18571
H         -1.47900       -0.33984        3.63175
H         -1.60641       -0.83944        1.94500
H         -0.00689       -0.66585        2.69975
H         -0.35529       -3.61267        4.85684
H          0.79822       -2.38727        4.29183
H         -0.58701       -1.92129        5.29618
H          0.91156       -2.95961        1.94818
H         -2.53672       -4.20005        2.93429
H         -1.79995       -4.84102        1.55385

--Link1--
%chk=JID_7200.chk
%mem=8GB
%nprocshared=4
# B3LYP/6-311++G(d,p) empiricaldispersion=gd3bj scf=xqc pop=npa geom=check

CID_134891672_JID_7200_Energie_neutraal

0 1

--Link1--
%chk=JID_7200.chk
%mem=8GB
%nprocshared=4
# B3LYP/6-311++G(d,p) empiricaldispersion=gd3bj scf=xqc pop=npa geom=check

CID_134891672_JID_7200_Energie_kation

1 2

--Link1--
%chk=JID_7200.chk
%mem=8GB
%nprocshared=4
# B3LYP/6-311++G(d,p) empiricaldispersion=gd3bj scf=xqc pop=npa geom=check

CID_134891672_JID_7200_Energie_anion

-1 2
