%chk=JID_7509.chk
%mem=8GB
%nprocshared=4
# opt freq B3LYP/6-31G(d) empiricaldispersion=gd3bj scf=xqc

CID_117345362_JID_7509_neutraal

0 1
C          2.50000        1.22000       -0.00600
C          1.34295        0.27195       -0.18708
C          1.55128       -1.12490       -0.18352
C          0.47982       -2.02409       -0.23914
C         -0.81974       -1.54757       -0.34931
C         -1.04064       -0.17397       -0.41713
C          0.01782        0.75671       -0.35368
C         -0.30379        2.24031       -0.48547
N         -0.57483        2.66383       -1.87424
C         -1.21906        3.97773       -1.87809
C          0.63020        2.69406       -2.69784
O         -2.32550        0.28572       -0.52104
C          2.89989       -1.73724       -0.15120
O          3.22442       -2.40981        0.82352
C          3.80778       -1.54412       -1.35020
C          3.25875       -2.18523       -2.62170
N          2.42764       -1.28467       -3.41697
H          2.24882        2.01539        0.70190
H          3.37455        0.72555        0.42753
H          2.79094        1.65853       -0.96402
H          0.66049       -3.09650       -0.20008
H         -1.64336       -2.25414       -0.38336
H         -1.18723        2.42912        0.14077
H          0.47640        2.86811       -0.04281
H         -0.58235        4.75098       -1.43301
H         -1.46898        4.28279       -2.90053
H         -2.16455        3.94700       -1.32498
H          1.39214        3.36941       -2.29255
H          1.06545        1.69522       -2.80047
H          0.39191        3.02297       -3.71600
H         -2.91645       -0.45881       -0.71682
H          4.04925       -0.48678       -1.49073
H          4.75745       -2.03507       -1.09959
H          4.10129       -2.48788       -3.25359
H          2.69062       -3.09397       -2.39505
H          2.93175       -0.42404       -3.62478
H          1.58710       -1.01168       -2.90699

--Link1--
%chk=JID_7509.chk
%mem=8GB
%nprocshared=4
# B3LYP/6-311++G(d,p) empiricaldispersion=gd3bj scf=xqc pop=npa geom=check

CID_117345362_JID_7509_Energie_neutraal

0 1

--Link1--
%chk=JID_7509.chk
%mem=8GB
%nprocshared=4
# B3LYP/6-311++G(d,p) empiricaldispersion=gd3bj scf=xqc pop=npa geom=check

CID_117345362_JID_7509_Energie_kation

1 2

--Link1--
%chk=JID_7509.chk
%mem=8GB
%nprocshared=4
# B3LYP/6-311++G(d,p) empiricaldispersion=gd3bj scf=xqc pop=npa geom=check

CID_117345362_JID_7509_Energie_anion

-1 2
