%chk=JID_6317.chk
%mem=8GB
%nprocshared=4
# opt freq B3LYP/6-31G(d) empiricaldispersion=gd3bj scf=xqc

CID_115346749_JID_6317_neutraal

0 1
C          0.96518        0.08934       -0.02839
C          0.98981       -0.87517        1.14624
C          1.50534       -0.23649        2.43987
C          0.64479        0.91093        3.01215
C         -0.76638        0.42643        3.36797
C          1.30130        1.51980        4.27512
C          2.60476        2.31890        4.02744
C          2.47227        3.48803        3.02110
C          1.28684        4.46531        3.17015
N          1.48197        5.77426        3.80696
C          2.43950        6.62030        3.10238
C          1.80598        5.69031        5.22447
N          3.13582        2.80004        5.31489
C          4.38864        2.14903        5.70675
C          5.60781        2.59834        4.89281
C          5.92431        4.07861        5.05295
H          0.23136        0.88639        0.12220
H          0.69202       -0.44268       -0.94537
H          1.94744        0.54697       -0.18292
H         -0.00532       -1.30731        1.29291
H          1.65183       -1.71176        0.89094
H          1.59627       -1.02624        3.19694
H          2.52257        0.12216        2.24831
H          0.53484        1.69670        2.25825
H         -0.73378       -0.40458        4.08040
H         -1.35260        1.23515        3.81823
H         -1.31140        0.09585        2.47887
H          0.57429        2.16234        4.78799
H          1.51565        0.70439        4.98082
H          3.32679        1.62322        3.58480
H          3.42090        4.03462        2.97481
H          2.38386        3.03601        2.02285
H          0.92295        4.67347        2.15375
H          0.43347        3.97483        3.64814
H          2.42386        7.63515        3.51610
H          3.46681        6.24789        3.16976
H          2.17332        6.71233        2.04373
H          1.12259        5.01245        5.74752
H          2.83546        5.37010        5.40291
H          1.68379        6.67342        5.69348
H          2.44684        2.64603        6.05114
H          4.57463        2.38633        6.76121
H          4.28318        1.05847        5.65393
H          6.47773        2.01968        5.22627
H          5.47389        2.37020        3.82957
H          6.08386        4.33375        6.10532
H          6.83665        4.32928        4.50224
H          5.11855        4.70716        4.66445

--Link1--
%chk=JID_6317.chk
%mem=8GB
%nprocshared=4
# B3LYP/6-311++G(d,p) empiricaldispersion=gd3bj scf=xqc pop=npa geom=check

CID_115346749_JID_6317_Energie_neutraal

0 1

--Link1--
%chk=JID_6317.chk
%mem=8GB
%nprocshared=4
# B3LYP/6-311++G(d,p) empiricaldispersion=gd3bj scf=xqc pop=npa geom=check

CID_115346749_JID_6317_Energie_kation

1 2

--Link1--
%chk=JID_6317.chk
%mem=8GB
%nprocshared=4
# B3LYP/6-311++G(d,p) empiricaldispersion=gd3bj scf=xqc pop=npa geom=check

CID_115346749_JID_6317_Energie_anion

-1 2
