%chk=JID_5562.chk
%mem=8GB
%nprocshared=4
# opt freq B3LYP/6-31G(d) empiricaldispersion=gd3bj scf=xqc

CID_59148594_JID_5562_neutraal

0 1
C         -1.43100        0.32400       -0.23100
C         -1.01170       -1.09414        0.14147
C          0.35693       -1.43204       -0.43790
C          1.41251       -0.39052       -0.05119
C          0.97758        1.05923       -0.30708
C         -0.40951        1.34736        0.25785
O          2.70007       -0.70266       -0.63226
C          2.86309       -0.61417       -1.97318
O          2.03804       -0.27078       -2.80133
C          4.24056       -0.95427       -2.33087
C          5.03721       -1.80846       -1.60115
N          6.30068       -2.13320       -1.95798
C          6.75344       -1.56561       -3.08925
N          6.06597       -0.72319       -3.87799
C          4.80617       -0.44013       -3.47731
H         -2.40932        0.54469        0.21065
H         -1.54434        0.40333       -1.31911
H         -0.98427       -1.19402        1.23373
H         -1.75537       -1.80996       -0.22590
H          0.27327       -1.51528       -1.52681
H          0.67679       -2.42226       -0.09098
H          1.57076       -0.48429        1.03160
H          0.96742        1.28863       -1.37685
H          1.71312        1.74490        0.13079
H         -0.72526        2.35437       -0.03770
H         -0.37040        1.33379        1.35390
H          4.68293       -2.28722       -0.69268
H          7.76495       -1.81105       -3.39445
H          4.25660        0.23796       -4.12588

--Link1--
%chk=JID_5562.chk
%mem=8GB
%nprocshared=4
# B3LYP/6-311++G(d,p) empiricaldispersion=gd3bj scf=xqc pop=npa geom=check

CID_59148594_JID_5562_Energie_neutraal

0 1

--Link1--
%chk=JID_5562.chk
%mem=8GB
%nprocshared=4
# B3LYP/6-311++G(d,p) empiricaldispersion=gd3bj scf=xqc pop=npa geom=check

CID_59148594_JID_5562_Energie_kation

1 2

--Link1--
%chk=JID_5562.chk
%mem=8GB
%nprocshared=4
# B3LYP/6-311++G(d,p) empiricaldispersion=gd3bj scf=xqc pop=npa geom=check

CID_59148594_JID_5562_Energie_anion

-1 2
