%chk=JID_5357.chk
%mem=8GB
%nprocshared=4
# opt freq B3LYP/6-31G(d) empiricaldispersion=gd3bj scf=xqc

CID_115198694_JID_5357_neutraal

0 1
C          2.49200        0.00400       -0.01400
C          0.99622       -0.05691        0.07274
C          0.36582       -1.12080        0.72683
C         -1.02785       -1.19685        0.77521
C         -1.81559       -0.21586        0.16053
C         -1.18355        0.84188       -0.50460
C          0.21032        0.91769       -0.55199
C         -3.32379       -0.31964        0.18141
C         -3.91731       -0.81799       -1.14781
N         -3.55525       -2.21511       -1.41137
C         -4.07518       -2.70807       -2.69017
C         -3.43870       -2.10919       -3.96645
C         -1.91176       -2.26401       -3.96788
C         -4.00596       -2.76908       -5.24174
N         -5.43071       -2.51371       -5.43238
H          2.95457       -0.47408        0.85588
H          2.83525       -0.50407       -0.92042
H          2.83919        1.04236       -0.03608
H          0.95603       -1.90015        1.20347
H         -1.49726       -2.03456        1.28696
H         -1.77322        1.61202       -0.99659
H          0.67922        1.74382       -1.08163
H         -3.64590       -0.97032        1.00472
H         -3.73598        0.67199        0.40896
H         -5.00889       -0.73563       -1.08771
H         -3.57803       -0.16491       -1.95901
H         -2.53936       -2.30720       -1.38716
H         -3.91882       -3.79411       -2.69959
H         -5.16201       -2.56544       -2.70182
H         -3.66472       -1.03648       -4.01558
H         -1.61954       -3.31283       -3.84944
H         -1.48406       -1.89804       -4.90769
H         -1.44990       -1.68530       -3.16195
H         -3.47805       -2.37567       -6.11825
H         -3.83195       -3.85134       -5.22161
H         -5.72633       -2.91202       -6.32361
H         -5.97395       -2.99973       -4.72019

--Link1--
%chk=JID_5357.chk
%mem=8GB
%nprocshared=4
# B3LYP/6-311++G(d,p) empiricaldispersion=gd3bj scf=xqc pop=npa geom=check

CID_115198694_JID_5357_Energie_neutraal

0 1

--Link1--
%chk=JID_5357.chk
%mem=8GB
%nprocshared=4
# B3LYP/6-311++G(d,p) empiricaldispersion=gd3bj scf=xqc pop=npa geom=check

CID_115198694_JID_5357_Energie_kation

1 2

--Link1--
%chk=JID_5357.chk
%mem=8GB
%nprocshared=4
# B3LYP/6-311++G(d,p) empiricaldispersion=gd3bj scf=xqc pop=npa geom=check

CID_115198694_JID_5357_Energie_anion

-1 2
