%chk=JID_8458.chk
%mem=8GB
%nprocshared=4
# opt freq B3LYP/6-31G(d) empiricaldispersion=gd3bj scf=xqc

CID_127750435_JID_8458_neutraal

0 1
C          0.30600       -1.50300       -0.44400
C         -0.82053       -1.09525        0.50673
C         -1.48999        0.25169        0.17372
C         -0.57843        1.47958        0.32716
C          0.78831        1.36302       -0.33218
O          1.58354        0.44923        0.41001
C          1.65471       -0.85636       -0.14314
N         -2.09983        0.23736       -1.15695
C         -3.11439       -0.45858       -1.68845
O         -3.14138       -0.59347       -2.91224
N         -4.09670       -1.01241       -0.96571
C         -4.54727       -0.80330        0.39830
C         -5.11416        0.59046        0.66769
N         -6.40071        0.80392        0.04171
C         -7.60392        0.29083        0.41606
N         -8.54060        0.73949       -0.38677
C         -7.84885        1.55413       -1.23825
N         -6.53656        1.63514       -1.00535
H          0.43796       -2.59166       -0.40582
H          0.02304       -1.28390       -1.47994
H         -1.58425       -1.88168        0.46326
H         -0.45366       -1.08297        1.54039
H         -2.29735        0.40745        0.89033
H         -1.09238        2.36410       -0.06936
H         -0.42678        1.65078        1.40118
H          0.73243        1.09977       -1.39439
H          1.28751        2.33598       -0.26826
H          2.18920       -1.47178        0.58909
H          2.27698       -0.83420       -1.04537
H         -1.49431        0.52722       -1.91575
H         -4.77760       -1.42309       -1.59621
H         -5.30884       -1.56887        0.58839
H         -3.72407       -1.02339        1.07940
H         -5.26855        0.72576        1.74439
H         -4.43662        1.38004        0.32583
H         -7.74037       -0.38385        1.24933
H         -8.31438        2.10502       -2.04559

--Link1--
%chk=JID_8458.chk
%mem=8GB
%nprocshared=4
# B3LYP/6-311++G(d,p) empiricaldispersion=gd3bj scf=xqc pop=npa geom=check

CID_127750435_JID_8458_Energie_neutraal

0 1

--Link1--
%chk=JID_8458.chk
%mem=8GB
%nprocshared=4
# B3LYP/6-311++G(d,p) empiricaldispersion=gd3bj scf=xqc pop=npa geom=check

CID_127750435_JID_8458_Energie_kation

1 2

--Link1--
%chk=JID_8458.chk
%mem=8GB
%nprocshared=4
# B3LYP/6-311++G(d,p) empiricaldispersion=gd3bj scf=xqc pop=npa geom=check

CID_127750435_JID_8458_Energie_anion

-1 2
