%chk=JID_10868.chk
%mem=8GB
%nprocshared=4
# opt freq B3LYP/6-31G(d) empiricaldispersion=gd3bj scf=xqc

CID_54001109_JID_10868_neutraal

0 1
C          0.90024        0.00179        0.00668
C          0.09372       -1.28489       -0.11732
C          0.61618       -2.43605        0.74826
C          0.67392       -2.16442        2.25407
C         -0.65509       -1.77713        2.90713
C         -1.76111       -2.83741        2.85639
C         -1.38463       -4.14730        3.55683
C         -2.60205       -4.97119        3.99773
C         -3.57037       -5.38482        2.88219
C         -2.97269       -6.33077        1.82941
N         -2.43006       -7.57021        2.38347
C         -3.42007       -8.50838        2.93788
C         -4.32761       -9.27634        1.96226
O         -3.66202      -10.41434        1.41903
C         -1.36148       -8.18017        1.57560
C         -1.61824       -8.54586        0.11504
S         -1.05050       -7.34839       -1.08163
O         -0.10107       -6.42312       -0.50722
O         -0.79107       -8.01206       -2.33947
O         -2.41914       -6.51062       -1.26851
H          0.80440        0.43834        1.00511
H          0.53949        0.74142       -0.71524
H          1.96100       -0.17897       -0.19322
H         -0.95681       -1.08130        0.11687
H          0.11836       -1.60867       -1.16511
H         -0.00106       -3.32305        0.56235
H          1.62756       -2.69640        0.41055
H          1.08069       -3.05216        2.75311
H          1.39813       -1.36319        2.44562
H         -0.45840       -1.53235        3.95893
H         -1.03362       -0.85361        2.45406
H         -2.64761       -2.40933        3.34081
H         -2.04142       -3.03906        1.81642
H         -0.73947       -4.74636        2.90418
H         -0.79550       -3.92424        4.45521
H         -2.24764       -5.86245        4.52952
H         -3.16468       -4.38630        4.73664
H         -4.45228       -5.84688        3.34084
H         -3.94544       -4.48928        2.37265
H         -3.73229       -6.54363        1.06926
H         -2.17608       -5.77316        1.32464
H         -2.88069       -9.23510        3.55905
H         -4.06494       -7.96634        3.63777
H         -5.21753       -9.63839        2.48849
H         -4.67469       -8.64521        1.13930
H         -3.49706      -11.03077        2.15381
H         -0.47828       -7.53651        1.65960
H         -1.05791       -9.10051        2.09356
H         -1.04246       -9.45195       -0.11338
H         -2.65888       -8.76957       -0.12096
H         -2.18273       -5.56174       -1.34330

--Link1--
%chk=JID_10868.chk
%mem=8GB
%nprocshared=4
# B3LYP/6-311++G(d,p) empiricaldispersion=gd3bj scf=xqc pop=npa geom=check

CID_54001109_JID_10868_Energie_neutraal

0 1

--Link1--
%chk=JID_10868.chk
%mem=8GB
%nprocshared=4
# B3LYP/6-311++G(d,p) empiricaldispersion=gd3bj scf=xqc pop=npa geom=check

CID_54001109_JID_10868_Energie_kation

1 2

--Link1--
%chk=JID_10868.chk
%mem=8GB
%nprocshared=4
# B3LYP/6-311++G(d,p) empiricaldispersion=gd3bj scf=xqc pop=npa geom=check

CID_54001109_JID_10868_Energie_anion

-1 2
