%chk=JID_5657.chk
%mem=8GB
%nprocshared=4
# opt freq B3LYP/6-31G(d) empiricaldispersion=gd3bj scf=xqc

CID_88446458_JID_5657_neutraal

0 1
C          1.06141        0.05856        0.05291
C          1.18053        1.33712        0.87044
C          1.61161        2.51211        0.02535
C          2.97738        2.62246       -0.30370
C          3.44679        3.67023       -1.09453
C          2.55977        4.62394       -1.57706
C          1.20364        4.53088       -1.26289
C          0.70268        3.48431       -0.45463
N         -0.70123        3.40947       -0.13111
S         -1.32199        4.81644        0.62035
C         -0.76099        4.46413        2.31449
C         -1.68854        3.48754        3.01470
S         -1.62135        2.77569       -1.42470
C         -2.99021        2.04143       -0.47763
C         -2.63897        0.66740        0.06102
H          0.35129        0.17443       -0.77164
H          0.71631       -0.76409        0.68716
H          2.02618       -0.23063       -0.37732
H          0.23500        1.54568        1.37737
H          1.91133        1.18839        1.67563
H          3.68605        1.87971        0.05774
H          4.50372        3.73630       -1.33866
H          2.91700        5.43815       -2.20143
H          0.52193        5.27902       -1.66205
H          0.26832        4.09423        2.32018
H         -0.76268        5.41229        2.86216
H         -1.69918        2.51119        2.52256
H         -1.35350        3.33215        4.04563
H         -2.71503        3.86738        3.05513
H         -3.31919        2.69856        0.33195
H         -3.83661        1.94269       -1.16565
H         -1.84210        0.71627        0.80646
H         -3.51431        0.22664        0.54992
H         -2.33083       -0.01372       -0.73907

--Link1--
%chk=JID_5657.chk
%mem=8GB
%nprocshared=4
# B3LYP/6-311++G(d,p) empiricaldispersion=gd3bj scf=xqc pop=npa geom=check

CID_88446458_JID_5657_Energie_neutraal

0 1

--Link1--
%chk=JID_5657.chk
%mem=8GB
%nprocshared=4
# B3LYP/6-311++G(d,p) empiricaldispersion=gd3bj scf=xqc pop=npa geom=check

CID_88446458_JID_5657_Energie_kation

1 2

--Link1--
%chk=JID_5657.chk
%mem=8GB
%nprocshared=4
# B3LYP/6-311++G(d,p) empiricaldispersion=gd3bj scf=xqc pop=npa geom=check

CID_88446458_JID_5657_Energie_anion

-1 2
