%chk=JID_9424.chk
%mem=8GB
%nprocshared=4
# opt freq B3LYP/6-31G(d) empiricaldispersion=gd3bj scf=xqc

CID_104145_JID_9424_neutraal

0 1
C          0.77100       -1.34400       -0.03900
C         -0.69766       -0.97977        0.06156
C         -0.74332        0.48625       -0.25157
O         -1.77276        1.14124       -0.32326
N          0.52822        0.94259       -0.44169
C          1.46238       -0.03717       -0.28526
O          2.67567        0.09566       -0.32897
C          0.84328        2.33461       -0.73626
C          1.21282        3.14363        0.52240
N          2.58249        2.87803        0.96066
C          2.91780        3.44769        2.26879
C          2.21908        2.80210        3.48968
N          2.18299        1.33961        3.39779
C          1.54357        0.70303        4.55626
C          0.01506        0.91199        4.67665
N         -0.65835        0.81480        3.37269
C         -2.12431        0.88739        3.49924
C         -2.67771        2.28368        3.86271
N         -1.94997        3.37840        3.20782
H          1.13496       -1.79360        0.88916
H          0.95908       -2.02266       -0.87606
H         -1.08425       -1.15614        1.06907
H         -1.29764       -1.53796       -0.66261
H          1.66337        2.36315       -1.46350
H         -0.03406        2.79518       -1.20473
H          1.13248        4.21002        0.28215
H          0.48736        2.92658        1.31068
H          2.79801        1.87569        0.95860
H          4.00044        3.32551        2.39734
H          2.73372        4.52867        2.26906
H          2.75642        3.10761        4.39520
H          1.20416        3.20532        3.56093
H          1.66086        1.06731        2.56567
H          1.72720       -0.37436        4.46068
H          2.03625        1.01301        5.48547
H         -0.37973        0.15485        5.36446
H         -0.17090        1.89406        5.12585
H         -0.39690        1.63130        2.81562
H         -2.53485        0.61053        2.52080
H         -2.49368        0.13681        4.20772
H         -3.73388        2.33153        3.57579
H         -2.62818        2.43330        4.94715
H         -2.48953        4.23798        3.31192
H         -1.08010        3.53990        3.71115

--Link1--
%chk=JID_9424.chk
%mem=8GB
%nprocshared=4
# B3LYP/6-311++G(d,p) empiricaldispersion=gd3bj scf=xqc pop=npa geom=check

CID_104145_JID_9424_Energie_neutraal

0 1

--Link1--
%chk=JID_9424.chk
%mem=8GB
%nprocshared=4
# B3LYP/6-311++G(d,p) empiricaldispersion=gd3bj scf=xqc pop=npa geom=check

CID_104145_JID_9424_Energie_kation

1 2

--Link1--
%chk=JID_9424.chk
%mem=8GB
%nprocshared=4
# B3LYP/6-311++G(d,p) empiricaldispersion=gd3bj scf=xqc pop=npa geom=check

CID_104145_JID_9424_Energie_anion

-1 2
