%chk=JID_4608.chk
%mem=8GB
%nprocshared=4
# opt freq B3LYP/6-31G(d) empiricaldispersion=gd3bj scf=xqc

CID_130646261_JID_4608_neutraal

0 1
C          1.31100        0.45600       -1.31400
C          0.64787       -0.04132       -0.01701
C         -0.19167        1.09330        0.66538
C         -1.50837        0.95509       -0.12390
C         -1.62032       -0.56076       -0.25777
O         -0.29025       -1.07637       -0.39255
C         -2.80893        1.56654        0.41955
N         -3.12051        2.99025        0.25746
C         -1.97451        3.92087        0.16173
C         -2.79919        4.69976       -0.88552
C         -3.47363        3.33627       -1.14262
N         -0.30987        0.85548        2.11443
C         -0.46963        2.06258        2.90496
C          1.73067       -0.66756        0.86686
H          1.84458       -0.36149       -1.81320
H          0.57739        0.81776       -2.04098
H          2.02505        1.26108       -1.11211
H          0.30654        2.05298        0.49444
H         -1.34509        1.35137       -1.13374
H         -2.07313       -1.02478        0.62544
H         -2.20595       -0.85415       -1.13458
H         -3.65130        1.01501       -0.02254
H         -2.89167        1.34164        1.48849
H         -1.74835        4.47266        1.07794
H         -1.04504        3.53868       -0.26659
H         -2.24160        5.12988       -1.72061
H         -3.46576        5.45926       -0.46021
H         -2.98538        2.74301       -1.92492
H         -4.54708        3.37838       -1.34796
H         -1.03003        0.17010        2.33215
H         -1.41473        2.57168        2.70847
H         -0.45289        1.80118        3.96779
H          0.35465        2.76214        2.73263
H          1.29575       -1.19308        1.72412
H          2.29245       -1.42849        0.31222
H          2.43775        0.08497        1.23044

--Link1--
%chk=JID_4608.chk
%mem=8GB
%nprocshared=4
# B3LYP/6-311++G(d,p) empiricaldispersion=gd3bj scf=xqc pop=npa geom=check

CID_130646261_JID_4608_Energie_neutraal

0 1

--Link1--
%chk=JID_4608.chk
%mem=8GB
%nprocshared=4
# B3LYP/6-311++G(d,p) empiricaldispersion=gd3bj scf=xqc pop=npa geom=check

CID_130646261_JID_4608_Energie_kation

1 2

--Link1--
%chk=JID_4608.chk
%mem=8GB
%nprocshared=4
# B3LYP/6-311++G(d,p) empiricaldispersion=gd3bj scf=xqc pop=npa geom=check

CID_130646261_JID_4608_Energie_anion

-1 2
