%chk=JID_6934.chk
%mem=8GB
%nprocshared=4
# opt freq B3LYP/6-31G(d) empiricaldispersion=gd3bj scf=xqc

CID_790905_JID_6934_neutraal

0 1
C         -0.31100        1.37300        0.31600
C         -1.07933        0.55663       -0.71639
C         -0.97030       -0.94394       -0.43197
C          0.42878       -1.38962       -0.07422
C          1.38458       -0.50539        0.26755
C          1.16578        0.97822        0.34195
C          0.69535       -2.88108       -0.08913
C          0.90223       -3.44784       -1.50172
N          2.08817       -2.90279       -2.14963
C          3.39590       -3.23292       -1.86136
O          4.24613       -2.35540       -2.01394
C          3.69611       -4.58153       -1.41889
C          3.22837       -5.79120       -1.89933
C          3.78407       -6.90583       -1.20615
C          4.67197       -6.51230       -0.23069
S          4.83897       -4.81163       -0.16253
H         -0.40388        2.44280        0.09767
H         -0.75197        1.21108        1.30794
H         -2.13402        0.85416       -0.72221
H         -0.68272        0.76988       -1.71734
H         -1.63808       -1.20615        0.39815
H         -1.32838       -1.48605       -1.31417
H          2.38905       -0.85148        0.50694
H          1.68873        1.44544       -0.50107
H          1.62290        1.36779        1.25864
H          1.57339       -3.11152        0.52783
H         -0.14965       -3.39447        0.38614
H          0.96922       -4.53574       -1.44370
H          0.05219       -3.20794       -2.14874
H          2.02758       -1.92279       -2.40149
H          2.52829       -5.87302       -2.72226
H          3.55452       -7.94260       -1.42054
H          5.24372       -7.14063        0.43857

--Link1--
%chk=JID_6934.chk
%mem=8GB
%nprocshared=4
# B3LYP/6-311++G(d,p) empiricaldispersion=gd3bj scf=xqc pop=npa geom=check

CID_790905_JID_6934_Energie_neutraal

0 1

--Link1--
%chk=JID_6934.chk
%mem=8GB
%nprocshared=4
# B3LYP/6-311++G(d,p) empiricaldispersion=gd3bj scf=xqc pop=npa geom=check

CID_790905_JID_6934_Energie_kation

1 2

--Link1--
%chk=JID_6934.chk
%mem=8GB
%nprocshared=4
# B3LYP/6-311++G(d,p) empiricaldispersion=gd3bj scf=xqc pop=npa geom=check

CID_790905_JID_6934_Energie_anion

-1 2
