%chk=JID_1342.chk
%mem=8GB
%nprocshared=4
# opt freq B3LYP/6-31G(d) empiricaldispersion=gd3bj scf=xqc

CID_147676549_JID_1342_neutraal

0 1
C          0.98252       -0.05143       -0.08396
C          0.60420        0.52787        1.27227
C         -0.23826        1.81759        1.16144
C          0.51145        2.80625        2.08933
C          1.81345        3.22775        1.36524
C          2.69475        1.97443        1.47421
C          1.77811        0.96312        2.20356
C          1.00845        1.86195        3.20744
N          1.79041        2.48977        4.26334
C          2.53648       -0.20469        2.80885
C         -0.34562        3.97838        2.52432
H          1.46466        0.68578       -0.73247
H          0.08474       -0.39970       -0.60641
H          1.65579       -0.90659        0.02649
H          0.00277       -0.22993        1.79441
H         -0.31891        2.19383        0.13575
H         -1.25453        1.62594        1.52691
H          1.63632        3.50644        0.32079
H          2.29991        4.07829        1.85621
H          3.03787        1.62649        0.49629
H          3.59349        2.19831        2.06135
H          0.17603        1.32428        3.67982
H          2.20894        1.77086        4.85167
H          2.56483        3.02775        3.88148
H          3.31622        0.13724        3.49740
H          1.86375       -0.86266        3.36913
H          3.02447       -0.80312        2.03284
H         -1.22857        3.63728        3.07522
H          0.21016        4.66131        3.17521
H         -0.69083        4.55155        1.65720

--Link1--
%chk=JID_1342.chk
%mem=8GB
%nprocshared=4
# B3LYP/6-311++G(d,p) empiricaldispersion=gd3bj scf=xqc pop=npa geom=check

CID_147676549_JID_1342_Energie_neutraal

0 1

--Link1--
%chk=JID_1342.chk
%mem=8GB
%nprocshared=4
# B3LYP/6-311++G(d,p) empiricaldispersion=gd3bj scf=xqc pop=npa geom=check

CID_147676549_JID_1342_Energie_kation

1 2

--Link1--
%chk=JID_1342.chk
%mem=8GB
%nprocshared=4
# B3LYP/6-311++G(d,p) empiricaldispersion=gd3bj scf=xqc pop=npa geom=check

CID_147676549_JID_1342_Energie_anion

-1 2
