%chk=JID_10716.chk
%mem=8GB
%nprocshared=4
# opt freq B3LYP/6-31G(d) empiricaldispersion=gd3bj scf=xqc

CID_108355032_JID_10716_neutraal

0 1
C          0.94011       -0.07997        0.00414
C          0.46640        0.13030       -1.44325
C          0.42159        1.63620       -1.74659
C         -0.08278        2.01263       -3.13861
C          0.94608        1.75571       -4.23144
C          0.96354        0.33642       -4.78723
C          0.65590       -0.80694       -3.82217
C          1.28717       -0.74935       -2.42255
N          2.68721       -0.32681       -2.50620
C          3.68487       -1.25004       -2.23598
N          4.65389       -0.81660       -1.40789
C          5.68851       -1.63569       -1.09792
C          5.79864       -2.90817       -1.62758
C          4.79464       -3.33527       -2.49199
C          3.72207       -2.50526       -2.80956
N          4.86961       -4.67305       -3.07970
O          3.94698       -5.02783       -3.82636
O          5.84587       -5.37653       -2.78484
N          6.72730       -1.16218       -0.25073
N          6.57475        0.15765        0.25299
H          0.93369       -1.14305        0.26704
H          0.27648        0.43672        0.70605
H          1.95353        0.30366        0.15999
H         -0.57045       -0.23387       -1.47837
H         -0.25203        2.10635       -1.01718
H          1.40453        2.09206       -1.57444
H         -0.29093        3.09039       -3.12694
H         -1.03487        1.51797       -3.36153
H          1.94686        2.02534       -3.87254
H          0.74600        2.43592       -5.06951
H          1.94286        0.16351       -5.25208
H          0.23935        0.27545       -5.61041
H          0.97973       -1.73368       -4.31419
H         -0.43262       -0.90783       -3.72141
H          1.22352       -1.77032       -2.01846
H          2.90907        0.49107       -1.94194
H          6.65268       -3.53153       -1.38426
H          2.94945       -2.81668       -3.50287
H          6.93423       -1.85805        0.46976
H          6.74148        0.81095       -0.52016
H          5.58068        0.31073        0.46517

--Link1--
%chk=JID_10716.chk
%mem=8GB
%nprocshared=4
# B3LYP/6-311++G(d,p) empiricaldispersion=gd3bj scf=xqc pop=npa geom=check

CID_108355032_JID_10716_Energie_neutraal

0 1

--Link1--
%chk=JID_10716.chk
%mem=8GB
%nprocshared=4
# B3LYP/6-311++G(d,p) empiricaldispersion=gd3bj scf=xqc pop=npa geom=check

CID_108355032_JID_10716_Energie_kation

1 2

--Link1--
%chk=JID_10716.chk
%mem=8GB
%nprocshared=4
# B3LYP/6-311++G(d,p) empiricaldispersion=gd3bj scf=xqc pop=npa geom=check

CID_108355032_JID_10716_Energie_anion

-1 2
