%chk=JID_10599.chk
%mem=8GB
%nprocshared=4
# opt freq B3LYP/6-31G(d) empiricaldispersion=gd3bj scf=xqc

CID_79092160_JID_10599_neutraal

0 1
C          0.93391        0.00686       -0.07473
C          0.95592       -0.89226       -1.30092
C          1.16048       -2.37101       -0.96496
C          0.07598       -3.00188       -0.08539
C         -1.34474       -2.95982       -0.65865
C         -1.52566       -3.63643       -2.02198
C         -1.09746       -5.10621       -2.08941
C         -1.80237       -6.04163       -1.10161
C         -3.32295       -6.14970       -1.27068
C         -3.77131       -6.73746       -2.61049
N         -3.26560       -8.07859       -2.82829
C         -3.76800       -9.24934       -2.12721
C         -2.79038      -10.33919       -2.55421
C         -3.38372      -11.73752       -2.76125
N         -2.41612      -12.65442       -3.41299
C         -1.97421      -12.07698       -4.70888
C         -1.38748      -10.65335       -4.59826
N         -2.25318       -9.81897       -3.79336
C         -2.41792       -8.44572       -3.87989
O         -1.92448       -7.70979       -4.71586
H          0.06108       -0.19269        0.55372
H          0.88782        1.05712       -0.38034
H          1.83598       -0.13014        0.52987
H          0.03371       -0.75271       -1.87515
H          1.77734       -0.57055       -1.95263
H          1.24768       -2.93412       -1.90137
H          2.12544       -2.48603       -0.45508
H          0.35664       -4.04257        0.11550
H          0.06972       -2.50918        0.89414
H         -2.02447       -3.42198        0.06725
H         -1.67306       -1.91694       -0.74190
H         -2.57841       -3.55006       -2.31623
H         -0.96362       -3.07745       -2.77978
H         -1.25336       -5.46536       -3.11268
H         -0.01662       -5.17624       -1.91931
H         -1.35623       -7.03957       -1.19294
H         -1.58881       -5.71890       -0.07615
H         -3.71043       -6.77455       -0.45659
H         -3.78442       -5.16450       -1.14065
H         -4.86536       -6.78935       -2.64663
H         -3.45449       -6.09081       -3.43497
H         -3.76523       -9.09170       -1.04566
H         -4.78902       -9.43909       -2.47473
H         -1.95417      -10.38535       -1.84307
H         -4.28886      -11.68811       -3.37930
H         -3.68104      -12.16219       -1.79630
H         -1.59486      -12.73530       -2.81222
H         -1.22927      -12.74352       -5.15683
H         -2.83462      -12.06357       -5.38936
H         -0.41071      -10.68240       -4.10187
H         -1.25332      -10.20079       -5.58574

--Link1--
%chk=JID_10599.chk
%mem=8GB
%nprocshared=4
# B3LYP/6-311++G(d,p) empiricaldispersion=gd3bj scf=xqc pop=npa geom=check

CID_79092160_JID_10599_Energie_neutraal

0 1

--Link1--
%chk=JID_10599.chk
%mem=8GB
%nprocshared=4
# B3LYP/6-311++G(d,p) empiricaldispersion=gd3bj scf=xqc pop=npa geom=check

CID_79092160_JID_10599_Energie_kation

1 2

--Link1--
%chk=JID_10599.chk
%mem=8GB
%nprocshared=4
# B3LYP/6-311++G(d,p) empiricaldispersion=gd3bj scf=xqc pop=npa geom=check

CID_79092160_JID_10599_Energie_anion

-1 2
