%chk=JID_4762.chk
%mem=8GB
%nprocshared=4
# opt freq B3LYP/6-31G(d) empiricaldispersion=gd3bj scf=xqc

CID_139685914_JID_4762_neutraal

0 1
C          1.09920       -0.00919       -0.00864
C          0.43041        0.30442        1.32364
C          1.01004        1.53639        2.05927
C          0.99938        2.77344        1.14413
C          0.23601        1.82497        3.38833
C          0.12904        0.59930        4.30959
C          0.83804        2.98877        4.17075
C          2.12384        2.91098        4.73090
C          2.66415        3.98896        5.43636
C          1.92982        5.16329        5.58794
C          0.65228        5.25412        5.03326
C          0.10357        4.17543        4.33150
C         -0.13262        6.49674        5.17682
O          0.29427        7.47496        5.77684
H          0.86034        0.74240       -0.76661
H          0.74500       -0.97419       -0.38607
H          2.18668       -0.06697        0.09998
H         -0.64520        0.44005        1.15777
H          0.54721       -0.58296        1.95573
H          2.05859        1.31482        2.29965
H         -0.01963        3.01844        0.82638
H          1.42086        3.65164        1.64224
H          1.60795        2.61341        0.24901
H         -0.79421        2.09519        3.11628
H          1.10905        0.14887        4.50113
H         -0.31040        0.86927        5.27706
H         -0.51604       -0.16951        3.87275
H          2.71943        2.00685        4.62100
H          3.66028        3.91333        5.86566
H          2.35399        6.00321        6.13395
H         -0.89156        4.25667        3.90039
H         -1.13238        6.50297        4.71095

--Link1--
%chk=JID_4762.chk
%mem=8GB
%nprocshared=4
# B3LYP/6-311++G(d,p) empiricaldispersion=gd3bj scf=xqc pop=npa geom=check

CID_139685914_JID_4762_Energie_neutraal

0 1

--Link1--
%chk=JID_4762.chk
%mem=8GB
%nprocshared=4
# B3LYP/6-311++G(d,p) empiricaldispersion=gd3bj scf=xqc pop=npa geom=check

CID_139685914_JID_4762_Energie_kation

1 2

--Link1--
%chk=JID_4762.chk
%mem=8GB
%nprocshared=4
# B3LYP/6-311++G(d,p) empiricaldispersion=gd3bj scf=xqc pop=npa geom=check

CID_139685914_JID_4762_Energie_anion

-1 2
