%chk=JID_7195.chk
%mem=8GB
%nprocshared=4
# opt freq B3LYP/6-31G(d) empiricaldispersion=gd3bj scf=xqc

CID_83261333_JID_7195_neutraal

0 1
C          1.06176       -0.06739       -0.04056
C          0.10003        0.66945       -0.97029
C          0.45715        0.47303       -2.44400
O         -1.28271        0.41359       -0.65550
C         -1.78251       -0.77950       -1.08150
C         -2.64379       -0.81863       -2.16655
N         -3.20905       -1.95349       -2.63754
C         -2.91742       -3.09399       -1.97165
C         -2.09959       -3.16214       -0.84382
C         -1.53935       -1.96128       -0.39253
C         -1.81470       -4.49121       -0.17884
C         -2.08479       -4.46844        1.33763
C         -1.81886       -5.82648        1.97566
C         -0.43270       -6.31567        1.62214
O          0.31127       -6.81194        2.46597
C         -0.06556       -6.29604        0.15608
C         -0.36572       -4.93329       -0.45440
H          1.13389       -1.13022       -0.29086
H          0.73156        0.00841        1.00050
H          2.06996        0.35290       -0.11822
H          0.22536        1.73921       -0.76035
H          0.41890       -0.58266       -2.73287
H         -0.24475        1.01393       -3.08719
H          1.46836        0.83869       -2.65027
H         -2.90279        0.08744       -2.70553
H         -3.38252       -3.98414       -2.38825
H         -0.91654       -1.94230        0.49532
H         -2.48610       -5.24346       -0.61678
H         -3.12233       -4.17100        1.53241
H         -1.44641       -3.72371        1.82961
H         -2.54320       -6.57150        1.62954
H         -1.90353       -5.74767        3.06463
H          1.00032       -6.52345        0.04980
H         -0.63448       -7.08453       -0.34838
H         -0.18012       -4.97379       -1.53495
H          0.33672       -4.19552       -0.04385

--Link1--
%chk=JID_7195.chk
%mem=8GB
%nprocshared=4
# B3LYP/6-311++G(d,p) empiricaldispersion=gd3bj scf=xqc pop=npa geom=check

CID_83261333_JID_7195_Energie_neutraal

0 1

--Link1--
%chk=JID_7195.chk
%mem=8GB
%nprocshared=4
# B3LYP/6-311++G(d,p) empiricaldispersion=gd3bj scf=xqc pop=npa geom=check

CID_83261333_JID_7195_Energie_kation

1 2

--Link1--
%chk=JID_7195.chk
%mem=8GB
%nprocshared=4
# B3LYP/6-311++G(d,p) empiricaldispersion=gd3bj scf=xqc pop=npa geom=check

CID_83261333_JID_7195_Energie_anion

-1 2
