%chk=JID_8159.chk
%mem=8GB
%nprocshared=4
# opt freq B3LYP/6-31G(d) empiricaldispersion=gd3bj scf=xqc

CID_106619373_JID_8159_neutraal

0 1
C          1.02933        0.04346       -0.08515
C          1.22415        0.79140        1.22820
N          1.70834        2.16621        1.05495
C          0.77142        3.15200        0.50084
C          0.16236        4.03386        1.61732
C         -1.33309        4.27175        1.43722
C         -1.61435        5.51491        2.26944
C         -0.25007        6.13870        2.52786
N          0.68801        5.42706        1.64360
C          3.07358        2.33169        0.85713
N          3.85125        1.26710        0.53227
C          5.17480        1.43622        0.33382
N          5.88704        2.56044        0.43794
C          5.13107        3.60530        0.81325
C          3.76551        3.52664        1.02752
N          3.42649        4.78479        1.44568
C          4.55325        5.55701        1.42731
N          5.60471        4.87127        1.04159
H          0.28791        0.53300       -0.72352
H          0.67370       -0.97250        0.11528
H          1.95716       -0.03524       -0.65828
H          0.26179        0.82690        1.75434
H          1.89495        0.22454        1.88653
H          1.24812        3.76586       -0.27481
H         -0.04137        2.62901       -0.01704
H          0.34246        3.57526        2.59938
H         -1.57961        4.47047        0.38638
H         -1.93102        3.41640        1.76734
H         -2.27579        6.19763        1.72553
H         -2.10153        5.25210        3.21464
H         -0.24465        7.21421        2.32579
H          0.04884        5.99358        3.57225
H          0.56956        5.82137        0.70422
H          5.72816        0.54525        0.05436
H          2.49850        5.08668        1.72794
H          4.54353        6.60103        1.71049

--Link1--
%chk=JID_8159.chk
%mem=8GB
%nprocshared=4
# B3LYP/6-311++G(d,p) empiricaldispersion=gd3bj scf=xqc pop=npa geom=check

CID_106619373_JID_8159_Energie_neutraal

0 1

--Link1--
%chk=JID_8159.chk
%mem=8GB
%nprocshared=4
# B3LYP/6-311++G(d,p) empiricaldispersion=gd3bj scf=xqc pop=npa geom=check

CID_106619373_JID_8159_Energie_kation

1 2

--Link1--
%chk=JID_8159.chk
%mem=8GB
%nprocshared=4
# B3LYP/6-311++G(d,p) empiricaldispersion=gd3bj scf=xqc pop=npa geom=check

CID_106619373_JID_8159_Energie_anion

-1 2
