%chk=JID_10934.chk
%mem=8GB
%nprocshared=4
# opt freq B3LYP/6-31G(d) empiricaldispersion=gd3bj scf=xqc

CID_81543672_JID_10934_neutraal

0 1
C          0.95691        0.06323       -0.06438
C          0.93846        1.35336       -0.87074
C          1.72674        1.27294       -2.18476
C          1.07938        0.40931       -3.24402
C          0.06481        0.90444       -4.07214
N         -0.52277        0.14130       -5.00678
C         -0.11755       -1.12656       -5.08962
N          0.83120       -1.70209       -4.34934
C          1.44312       -0.92718       -3.44047
N          2.46711       -1.49591       -2.65551
C          2.74198       -2.91443       -2.92413
C          3.86422       -3.44419       -1.98303
C          3.37148       -3.47527       -0.52744
N          4.43765       -4.76239       -2.31338
C          5.28970       -4.76916       -3.50070
C          5.51596       -6.25299       -3.75807
C          4.36471       -6.96406       -3.05459
C          3.48180       -5.84915       -2.51415
N         -0.32249        2.25607       -3.96941
C         -1.38673        2.66256       -4.87366
H          0.44074       -0.74626       -0.58842
H          0.44885        0.21330        0.89377
H          1.98317       -0.25236        0.14606
H         -0.10216        1.64217       -1.05324
H          1.38118        2.14547       -0.25451
H          1.84999        2.28830       -2.58381
H          2.75251        0.94750       -1.97824
H         -0.60391       -1.74842       -5.83240
H          3.30550       -0.93207       -2.76663
H          1.83077       -3.50685       -2.77315
H          3.05797       -3.02333       -3.96781
H          4.69169       -2.72106       -2.00311
H          2.48630       -4.10930       -0.40974
H          4.15244       -3.85205        0.14300
H          3.11030       -2.46996       -0.18194
H          6.23607       -4.24594       -3.33101
H          4.79730       -4.32085       -4.37075
H          5.52789       -6.47201       -4.83080
H          6.47205       -6.58423       -3.33664
H          3.81576       -7.62310       -3.73460
H          4.75602       -7.57825       -2.23465
H          2.71740       -5.59959       -3.25897
H          2.98561       -6.15460       -1.58823
H         -0.55798        2.46435       -3.00472
H         -2.31120        2.10598       -4.68446
H         -1.60165        3.72399       -4.71322
H         -1.09088        2.54533       -5.92187

--Link1--
%chk=JID_10934.chk
%mem=8GB
%nprocshared=4
# B3LYP/6-311++G(d,p) empiricaldispersion=gd3bj scf=xqc pop=npa geom=check

CID_81543672_JID_10934_Energie_neutraal

0 1

--Link1--
%chk=JID_10934.chk
%mem=8GB
%nprocshared=4
# B3LYP/6-311++G(d,p) empiricaldispersion=gd3bj scf=xqc pop=npa geom=check

CID_81543672_JID_10934_Energie_kation

1 2

--Link1--
%chk=JID_10934.chk
%mem=8GB
%nprocshared=4
# B3LYP/6-311++G(d,p) empiricaldispersion=gd3bj scf=xqc pop=npa geom=check

CID_81543672_JID_10934_Energie_anion

-1 2
