%chk=JID_10524.chk
%mem=8GB
%nprocshared=4
# opt freq B3LYP/6-31G(d) empiricaldispersion=gd3bj scf=xqc

CID_111427645_JID_10524_neutraal

0 1
C          0.97853        0.07677        0.06038
C         -0.32533        0.07677        0.06038
C         -1.84533        0.07677        0.06038
O         -2.39451        0.15065        1.38252
C         -2.08514       -0.82339        2.29383
C         -2.49806       -0.54859        3.59814
C         -2.15765       -1.40584        4.64377
C         -1.38496       -2.54092        4.39396
C         -0.99144       -2.84958        3.09042
C         -1.37484       -1.99976        2.04064
N         -0.12549       -3.92421        2.75883
C          0.58571       -4.68805        3.63763
O          1.80965       -4.74511        3.52163
N         -0.10188       -5.42617        4.56642
C         -1.45106       -5.93946        4.38077
C         -1.72852       -6.70734        5.66130
C         -0.36525       -7.29966        5.99588
C          0.62426       -6.20215        5.57684
C          1.07779       -5.30746        6.74303
O          1.75658       -6.05000        7.75190
H          2.04437        0.08086        0.07157
H         -2.19569        0.95888       -0.48592
H         -2.23627       -0.80628       -0.45802
H         -3.06203        0.35749        3.80651
H         -2.46224       -1.16830        5.65963
H         -1.08012       -3.14843        5.23927
H         -1.06923       -2.25610        1.03204
H          0.42473       -3.74144        1.92727
H         -1.43802       -6.60770        3.51164
H         -2.18159       -5.15063        4.19868
H         -2.04116       -6.01980        6.45597
H         -2.50340       -7.46826        5.53630
H         -0.28598       -7.60533        7.04211
H         -0.20104       -8.19126        5.37725
H          1.50911       -6.67403        5.13168
H          1.76834       -4.53836        6.38083
H          0.23014       -4.78579        7.20249
H          1.08498       -6.45186        8.32748

--Link1--
%chk=JID_10524.chk
%mem=8GB
%nprocshared=4
# B3LYP/6-311++G(d,p) empiricaldispersion=gd3bj scf=xqc pop=npa geom=check

CID_111427645_JID_10524_Energie_neutraal

0 1

--Link1--
%chk=JID_10524.chk
%mem=8GB
%nprocshared=4
# B3LYP/6-311++G(d,p) empiricaldispersion=gd3bj scf=xqc pop=npa geom=check

CID_111427645_JID_10524_Energie_kation

1 2

--Link1--
%chk=JID_10524.chk
%mem=8GB
%nprocshared=4
# B3LYP/6-311++G(d,p) empiricaldispersion=gd3bj scf=xqc pop=npa geom=check

CID_111427645_JID_10524_Energie_anion

-1 2
