%chk=JID_7324.chk
%mem=8GB
%nprocshared=4
# opt freq B3LYP/6-31G(d) empiricaldispersion=gd3bj scf=xqc

CID_106698064_JID_7324_neutraal

0 1
C          0.94587        0.06439       -0.05407
C          0.57968        0.59426       -1.39793
C          1.59248        1.38024       -2.19044
C          1.12688        0.03646       -2.69826
C          2.08851       -1.11087       -2.78768
N          1.32456       -2.33049       -2.92833
C          1.88803       -3.41510       -3.49810
N          3.02380       -3.42255       -4.15103
C          3.30790       -4.69224       -4.66247
C          2.32189       -5.63170       -4.40746
S          1.09877       -4.93764       -3.42230
C          2.18253       -7.01625       -4.80913
O          1.86100       -7.91142       -4.02588
C          2.36928       -7.34676       -6.27149
C          4.55954       -4.95299       -5.36690
O          4.93172       -6.04346       -5.77742
O          5.34240       -3.86585       -5.55399
H          0.40167       -0.86390        0.14529
H          0.67444        0.78974        0.71957
H          2.01689       -0.13837        0.04102
H         -0.45038        0.93698       -1.41340
H          1.24890        2.26443       -2.71657
H          2.60302        1.46645       -1.80648
H          0.47072        0.05412       -3.56452
H          2.73133       -0.93858       -3.65956
H          2.73701       -1.17473       -1.90753
H          0.59646       -2.47521       -2.23904
H          2.43908       -6.44599       -6.88702
H          3.26975       -7.95241       -6.39947
H          1.50111       -7.91671       -6.61665
H          6.13098       -4.21257       -6.01545

--Link1--
%chk=JID_7324.chk
%mem=8GB
%nprocshared=4
# B3LYP/6-311++G(d,p) empiricaldispersion=gd3bj scf=xqc pop=npa geom=check

CID_106698064_JID_7324_Energie_neutraal

0 1

--Link1--
%chk=JID_7324.chk
%mem=8GB
%nprocshared=4
# B3LYP/6-311++G(d,p) empiricaldispersion=gd3bj scf=xqc pop=npa geom=check

CID_106698064_JID_7324_Energie_kation

1 2

--Link1--
%chk=JID_7324.chk
%mem=8GB
%nprocshared=4
# B3LYP/6-311++G(d,p) empiricaldispersion=gd3bj scf=xqc pop=npa geom=check

CID_106698064_JID_7324_Energie_anion

-1 2
