%chk=JID_10811.chk
%mem=8GB
%nprocshared=4
# opt freq B3LYP/6-31G(d) empiricaldispersion=gd3bj scf=xqc

CID_103415524_JID_10811_neutraal

0 1
C          0.95952       -0.07297        0.05510
O          0.65891       -1.34221        0.60525
C          0.91092       -2.41551       -0.31008
C          0.05677       -3.61637        0.10799
O         -1.13039       -3.82862       -0.66123
C         -2.00945       -2.72862       -0.86645
C         -2.47955       -1.98432        0.38101
C         -3.16496       -2.86640        1.42905
C         -3.28708       -2.20493        2.84235
C         -3.69372       -0.69574        2.81918
C         -4.88193       -0.15407        2.04985
C         -4.96094        1.24480        1.89869
C         -6.01904        1.84533        1.21363
C         -7.02587        1.05754        0.66916
C         -6.97176       -0.32548        0.81533
C         -5.91112       -0.92536        1.50367
C         -4.27043       -3.00943        3.73347
O         -3.98513       -4.40443        3.73933
C         -1.88603       -2.25239        3.53936
O         -1.44697       -3.59319        3.75026
H          0.80351        0.68506        0.82723
H          0.29349        0.14490       -0.78531
H          2.00310       -0.03261       -0.27142
H          0.70709       -2.11704       -1.34377
H          1.97313       -2.66567       -0.21648
H          0.65084       -4.52589       -0.03284
H         -0.21074       -3.57013        1.16792
H         -1.54295       -2.02475       -1.56430
H         -2.88648       -3.13002       -1.38709
H         -1.63671       -1.47118        0.83632
H         -3.16921       -1.19841        0.05420
H         -4.15338       -3.14529        1.04888
H         -2.62248       -3.81480        1.51869
H         -3.83388       -0.37140        3.86094
H         -2.82134       -0.13229        2.45529
H         -4.18545        1.88303        2.31904
H         -6.05534        2.92631        1.10849
H         -7.85254        1.51796        0.13541
H         -7.75913       -0.94564        0.39389
H         -5.92437       -2.00596        1.58664
H         -4.22861       -2.65717        4.77069
H         -5.30569       -2.90349        3.40707
H         -3.00836       -4.48319        3.80857
H         -1.12455       -1.73532        2.94721
H         -1.92689       -1.76500        4.52034
H         -0.51267       -3.54061        4.02354

--Link1--
%chk=JID_10811.chk
%mem=8GB
%nprocshared=4
# B3LYP/6-311++G(d,p) empiricaldispersion=gd3bj scf=xqc pop=npa geom=check

CID_103415524_JID_10811_Energie_neutraal

0 1

--Link1--
%chk=JID_10811.chk
%mem=8GB
%nprocshared=4
# B3LYP/6-311++G(d,p) empiricaldispersion=gd3bj scf=xqc pop=npa geom=check

CID_103415524_JID_10811_Energie_kation

1 2

--Link1--
%chk=JID_10811.chk
%mem=8GB
%nprocshared=4
# B3LYP/6-311++G(d,p) empiricaldispersion=gd3bj scf=xqc pop=npa geom=check

CID_103415524_JID_10811_Energie_anion

-1 2
