%chk=JID_10170.chk
%mem=8GB
%nprocshared=4
# opt freq B3LYP/6-31G(d) empiricaldispersion=gd3bj scf=xqc

CID_103798595_JID_10170_neutraal

0 1
C         -1.43100        0.32400       -0.23100
C         -0.67742       -0.98878       -0.02859
C          0.78703       -0.89660       -0.45697
C          1.48075        0.28592        0.23296
C          0.76331        1.62285       -0.07422
C         -0.70288        1.51405        0.39189
C          0.86471        2.05107       -1.54957
O          0.27108        3.32964       -1.74702
N          2.90711        0.33327       -0.05836
C          3.91868       -0.40330        0.47928
O          5.05502       -0.25458        0.02705
C          3.65334       -1.35839        1.62444
C          4.17130       -0.81273        2.95669
C          3.21552        0.15994        3.66277
C          1.87089       -0.39234        4.08759
C          0.75389        0.45837        4.09062
C         -0.50390       -0.00984        4.47657
C         -0.65992       -1.33130        4.88466
C          0.44392       -2.17913        4.91903
C          1.70244       -1.71062        4.53293
H         -2.43195        0.23933        0.20786
H         -1.57664        0.49795       -1.30343
H         -0.72300       -1.26755        1.03187
H         -1.17559       -1.78960       -0.58658
H          0.85460       -0.80106       -1.54705
H          1.28949       -1.83843       -0.20856
H          1.39899        0.12522        1.31040
H          1.23137        2.41665        0.52446
H         -1.25302        2.43670        0.17745
H         -0.71932        1.40225        1.48314
H          1.91014        2.14732       -1.85441
H          0.39015        1.34261       -2.23457
H         -0.69122        3.20586       -1.80958
H          3.23450        0.88829       -0.84039
H          2.60655       -1.65835        1.68202
H          4.20564       -2.27553        1.38088
H          4.39708       -1.65534        3.62022
H          5.12568       -0.29503        2.79612
H          3.71044        0.53823        4.56634
H          3.06214        1.02646        3.00715
H          0.85587        1.49738        3.78329
H         -1.36014        0.65941        4.46353
H         -1.63711       -1.69721        5.18810
H          0.32848       -3.20699        5.25372
H          2.54444       -2.39522        4.58885

--Link1--
%chk=JID_10170.chk
%mem=8GB
%nprocshared=4
# B3LYP/6-311++G(d,p) empiricaldispersion=gd3bj scf=xqc pop=npa geom=check

CID_103798595_JID_10170_Energie_neutraal

0 1

--Link1--
%chk=JID_10170.chk
%mem=8GB
%nprocshared=4
# B3LYP/6-311++G(d,p) empiricaldispersion=gd3bj scf=xqc pop=npa geom=check

CID_103798595_JID_10170_Energie_kation

1 2

--Link1--
%chk=JID_10170.chk
%mem=8GB
%nprocshared=4
# B3LYP/6-311++G(d,p) empiricaldispersion=gd3bj scf=xqc pop=npa geom=check

CID_103798595_JID_10170_Energie_anion

-1 2
