%chk=JID_5536.chk
%mem=8GB
%nprocshared=4
# opt freq B3LYP/6-31G(d) empiricaldispersion=gd3bj scf=xqc

CID_14200314_JID_5536_neutraal

0 1
C          0.97465        0.08854        0.03895
C          0.32576        0.04603       -1.33623
C          0.16102       -1.37416       -1.88439
C         -0.85146       -2.23430       -1.13016
O         -2.17379       -1.70149       -1.30174
C         -2.74926       -1.11776       -0.21638
O         -2.24028       -1.04545        0.89005
O         -3.97509       -0.70072       -0.58816
C         -4.54309        0.21335        0.22242
O         -3.99091        0.93688        1.03494
O         -5.87199        0.23877       -0.06550
C         -6.67873        1.17619        0.66410
C         -7.56450        0.43886        1.66665
C         -6.80734       -0.22642        2.81912
C         -6.18420        0.77166        3.78327
H          0.35671       -0.39912        0.79675
H          1.12507        1.12718        0.35058
H          1.95223       -0.40390        0.02483
H         -0.64063        0.56076       -1.30484
H          0.95760        0.61241       -2.03122
H         -0.16335       -1.29102       -2.92923
H          1.13376       -1.87980       -1.88699
H         -0.86237       -3.23666       -1.57242
H         -0.57417       -2.36215       -0.07886
H         -6.08992        1.96639        1.14070
H         -7.31893        1.67062       -0.07483
H         -8.30682        1.13567        2.07322
H         -8.11490       -0.34598        1.13318
H         -7.51334       -0.84986        3.38097
H         -6.03502       -0.90099        2.43430
H         -6.94329        1.44458        4.19464
H         -5.71362        0.24316        4.61851
H         -5.41488        1.37850        3.29922

--Link1--
%chk=JID_5536.chk
%mem=8GB
%nprocshared=4
# B3LYP/6-311++G(d,p) empiricaldispersion=gd3bj scf=xqc pop=npa geom=check

CID_14200314_JID_5536_Energie_neutraal

0 1

--Link1--
%chk=JID_5536.chk
%mem=8GB
%nprocshared=4
# B3LYP/6-311++G(d,p) empiricaldispersion=gd3bj scf=xqc pop=npa geom=check

CID_14200314_JID_5536_Energie_kation

1 2

--Link1--
%chk=JID_5536.chk
%mem=8GB
%nprocshared=4
# B3LYP/6-311++G(d,p) empiricaldispersion=gd3bj scf=xqc pop=npa geom=check

CID_14200314_JID_5536_Energie_anion

-1 2
