%chk=JID_4684.chk
%mem=8GB
%nprocshared=4
# opt freq B3LYP/6-31G(d) empiricaldispersion=gd3bj scf=xqc

CID_149560229_JID_4684_neutraal

0 1
C          0.93538       -0.07485       -0.01486
C          0.46653        1.09874        0.85895
C         -0.74387        1.71189        0.16216
C         -1.36800        2.74141        1.06795
C         -0.34924        3.79676        1.42441
C          0.17714        4.70963        0.29191
C          1.45434        4.88102        1.11981
C          1.12517        3.55287        1.86306
C          1.55343        2.18210        1.15938
C          2.76824        2.30158        0.11172
C          3.66593        2.62948        1.28585
C          2.65421        1.51824        2.03030
C          3.52082        1.90416        3.21216
C          4.67702        1.87574        2.12674
H          1.21749        0.25821       -1.01936
H          0.12641       -0.80548       -0.13321
H          1.78133       -0.61740        0.41164
H          0.13377        0.67920        1.81898
H         -1.49132        0.94014       -0.05940
H         -0.45307        2.15428       -0.79729
H         -2.23570        3.19749        0.57772
H         -1.73870        2.25857        1.98047
H         -0.84333        4.42460        2.18817
H         -0.39692        5.62437        0.11908
H          0.34851        4.22315       -0.67327
H          1.41677        5.75191        1.78806
H          2.36581        4.97466        0.52830
H          1.25136        3.57726        2.94971
H          3.07323        1.39353       -0.42189
H          2.66165        3.08589       -0.64264
H          3.63444        3.68103        1.59139
H          2.81862        0.45815        1.78651
H          3.32781        2.86930        3.69304
H          3.61902        1.14203        3.99054
H          5.56940        2.44185        2.40898
H          4.99098        0.89272        1.75639

--Link1--
%chk=JID_4684.chk
%mem=8GB
%nprocshared=4
# B3LYP/6-311++G(d,p) empiricaldispersion=gd3bj scf=xqc pop=npa geom=check

CID_149560229_JID_4684_Energie_neutraal

0 1

--Link1--
%chk=JID_4684.chk
%mem=8GB
%nprocshared=4
# B3LYP/6-311++G(d,p) empiricaldispersion=gd3bj scf=xqc pop=npa geom=check

CID_149560229_JID_4684_Energie_kation

1 2

--Link1--
%chk=JID_4684.chk
%mem=8GB
%nprocshared=4
# B3LYP/6-311++G(d,p) empiricaldispersion=gd3bj scf=xqc pop=npa geom=check

CID_149560229_JID_4684_Energie_anion

-1 2
