%chk=JID_5591.chk
%mem=8GB
%nprocshared=4
# opt freq B3LYP/6-31G(d) empiricaldispersion=gd3bj scf=xqc

CID_62491212_JID_5591_neutraal

0 1
C          0.93663        0.07722        0.00471
N          0.36751       -1.06592       -0.69728
C         -1.10836       -1.08433       -0.65840
C         -1.68614       -0.02073       -1.59358
C         -2.32130        1.11398       -1.06153
C         -2.84722        2.09505       -1.90395
C         -2.74554        1.95648       -3.28653
C         -2.11644        0.83872       -3.83015
C         -1.58706       -0.14308       -2.99120
C         -1.67135       -2.46959       -0.91545
C         -3.02714       -2.68935       -1.10106
N         -3.58583       -3.90303       -1.29204
C         -2.73657       -4.93912       -1.28165
N         -1.41250       -4.86807       -1.09167
C         -0.91364       -3.62696       -0.90163
H          0.62608        0.09482        1.05433
H          0.66942        1.02811       -0.46585
H          2.02836       -0.00096       -0.00952
H          0.67011       -1.04309       -1.67038
H         -1.41931       -0.85635        0.37154
H         -2.40795        1.24393        0.01526
H         -3.33654        2.96915       -1.48147
H         -3.15728        2.72022       -3.94140
H         -2.03983        0.72984       -4.90917
H         -1.10468       -1.01114       -3.43668
H         -3.73994       -1.86786       -1.10255
H         -3.15970       -5.92506       -1.43727
H          0.15906       -3.60227       -0.72592

--Link1--
%chk=JID_5591.chk
%mem=8GB
%nprocshared=4
# B3LYP/6-311++G(d,p) empiricaldispersion=gd3bj scf=xqc pop=npa geom=check

CID_62491212_JID_5591_Energie_neutraal

0 1

--Link1--
%chk=JID_5591.chk
%mem=8GB
%nprocshared=4
# B3LYP/6-311++G(d,p) empiricaldispersion=gd3bj scf=xqc pop=npa geom=check

CID_62491212_JID_5591_Energie_kation

1 2

--Link1--
%chk=JID_5591.chk
%mem=8GB
%nprocshared=4
# B3LYP/6-311++G(d,p) empiricaldispersion=gd3bj scf=xqc pop=npa geom=check

CID_62491212_JID_5591_Energie_anion

-1 2
