%chk=JID_7473.chk
%mem=8GB
%nprocshared=4
# opt freq B3LYP/6-31G(d) empiricaldispersion=gd3bj scf=xqc

CID_43216206_JID_7473_neutraal

0 1
C          1.07999       -0.03481        0.04889
C          1.02866        0.02639        1.57521
C          2.24373        0.83849        2.08925
O          2.18322        2.02692        2.41138
N          3.45953        0.22264        2.18290
C          3.87244       -1.12539        1.82104
C          4.92204       -1.09455        0.70779
O          6.10460       -0.46000        1.20412
C          7.08941       -0.32081        0.18815
N         -0.25583        0.64340        1.97238
C         -0.52219        0.51666        3.40237
C         -1.68768        1.39289        3.92005
C         -1.37396        2.89918        3.88431
C         -1.65361        3.57108        2.54405
C         -3.07225        3.29193        2.06630
C         -3.34940        1.79721        1.97516
C         -3.05395        1.07262        3.28753
H          1.03387        0.96856       -0.39074
H          0.24485       -0.62046       -0.35117
H          2.00538       -0.49837       -0.30511
H          1.06534       -0.98995        1.98133
H          4.19454        0.84140        2.51063
H          4.30073       -1.56492        2.72793
H          3.01671       -1.72726        1.51210
H          5.16672       -2.11819        0.40379
H          4.54225       -0.54086       -0.15861
H          7.37676       -1.30110       -0.20390
H          6.71650        0.31470       -0.62088
H          7.97145        0.15378        0.62621
H         -1.01494        0.21095        1.45188
H         -0.74601       -0.53382        3.62852
H          0.36817        0.77481        3.98815
H         -1.77405        1.12481        4.98367
H         -1.99414        3.39293        4.64473
H         -0.33346        3.08084        4.17856
H         -0.93368        3.23511        1.79040
H         -1.51157        4.65338        2.64592
H         -3.22962        3.75633        1.08622
H         -3.78858        3.75502        2.75614
H         -2.76238        1.36730        1.15807
H         -4.40091        1.63999        1.70674
H         -3.16562       -0.00893        3.14638
H         -3.83108        1.36504        4.00696

--Link1--
%chk=JID_7473.chk
%mem=8GB
%nprocshared=4
# B3LYP/6-311++G(d,p) empiricaldispersion=gd3bj scf=xqc pop=npa geom=check

CID_43216206_JID_7473_Energie_neutraal

0 1

--Link1--
%chk=JID_7473.chk
%mem=8GB
%nprocshared=4
# B3LYP/6-311++G(d,p) empiricaldispersion=gd3bj scf=xqc pop=npa geom=check

CID_43216206_JID_7473_Energie_kation

1 2

--Link1--
%chk=JID_7473.chk
%mem=8GB
%nprocshared=4
# B3LYP/6-311++G(d,p) empiricaldispersion=gd3bj scf=xqc pop=npa geom=check

CID_43216206_JID_7473_Energie_anion

-1 2
