%chk=JID_8522.chk
%mem=8GB
%nprocshared=4
# opt=(cartesian,calcfc) freq B3LYP/6-31G(d) empiricaldispersion=gd3bj scf=xqc

CID_102555916_JID_8522_neutraal

0 1
6	2.049037	 3.098661	 0.590318
6	0.921187	 2.064318	 0.610203
6	1.020928	 0.980710	 -0.487678
6	2.276402	 0.138824	 -0.352076
6	2.231382	 -1.136857	 0.121747
6	0.973358	 -1.889868	 0.452573
6	-0.202744	 -0.898443	 0.541674
7	-0.125971	 0.062061	 -0.548119
6	-1.398612	 0.592010	 -1.038506
6	-2.367543	 1.130957	 0.035328
8	-2.224627	 2.248517	 0.540481
7	-3.359573	 0.308255	 0.478567
6	-3.901447	 -0.908802	 -0.139719
6	-4.592663	 -1.745593	 0.942689
6	-4.866374	 -0.581338	 -1.293082
16	3.827288	 -1.855671	 0.188631
6	4.548250	 -0.411013	 -0.437748
6	3.606899	 0.560466	 -0.678817
1	3.017758	 2.657220	 0.848188
1	1.846113	 3.894048	 1.309240
1	2.143057	 3.566085	 -0.399622
1	0.899315	 1.571506	 1.591384
1	-0.039817	 2.571274	 0.500881
1	1.053110	 1.493271	 -1.460723
1	1.069823	 -2.442862	 1.392277
1	0.770926	 -2.627675	 -0.333457
1	-0.200863	 -0.410937	 1.530208
1	-1.134761	 -1.454246	 0.465889
1	-1.175120	 1.436840	 -1.698767
1	-1.890819	 -0.181899	 -1.633851
1	-3.960182	 0.746582	 1.150237
1	-3.079506	 -1.488429	 -0.537243
1	-5.432584	 -1.200215	 1.385977
1	-4.986138	 -2.676491	 0.518554
1	-3.886629	 -1.998742	 1.747842
1	-4.348118	 0.000697	 -2.067915
1	-5.257634	 -1.499476	 -1.758408
1	-5.705436	 0.011045	 -0.936084
1	5.613358	 -0.353688	 -0.589583
1	3.855007	 1.532286	 -1.081541

--Link1--
%chk=JID_8522.chk
%mem=8GB
%nprocshared=4
# B3LYP/6-311++G(d,p) empiricaldispersion=gd3bj scf=xqc pop=npa geom=check

CID_102555916_JID_8522_Energie_neutraal

0 1

--Link1--
%chk=JID_8522.chk
%mem=8GB
%nprocshared=4
# B3LYP/6-311++G(d,p) empiricaldispersion=gd3bj scf=xqc pop=npa geom=check

CID_102555916_JID_8522_Energie_kation

1 2

--Link1--
%chk=JID_8522.chk
%mem=8GB
%nprocshared=4
# B3LYP/6-311++G(d,p) empiricaldispersion=gd3bj scf=xqc pop=npa geom=check

CID_102555916_JID_8522_Energie_anion

-1 2
