%chk=JID_8946.chk
%mem=8GB
%nprocshared=4
# opt freq B3LYP/6-31G(d) empiricaldispersion=gd3bj scf=xqc

CID_114237733_JID_8946_neutraal

0 1
C          1.00507        0.09871       -0.01522
C          0.34213        0.76100       -1.22392
C          0.66552        0.02809       -2.52453
N         -1.10294        0.96499       -1.02567
C         -2.09537        0.03307       -0.82573
S         -2.08618       -1.62320       -0.89355
N         -3.23688        0.75031       -0.51229
N         -2.97373        2.08132       -0.49414
C         -1.70925        2.17724       -0.81291
N         -1.03072        3.37691       -0.93388
C         -1.30522        4.38567        0.09766
C         -2.40392        5.37039       -0.28614
C         -1.87038        6.61177       -1.00226
C         -1.17725        6.41107       -2.35509
C         -0.20238        5.22647       -2.44194
C         -0.82453        3.84213       -2.31709
S         -2.25189        6.54400       -3.85646
C         -3.82207        5.81759       -3.32477
H          0.69307       -0.94086        0.11405
H          0.75965        0.63884        0.90564
H          2.09475        0.10165       -0.12728
H          0.80621        1.74952       -1.30315
H          0.36806       -1.02307       -2.49864
H          0.15880        0.50034       -3.37293
H          1.74331        0.05497       -2.71901
H         -4.14830        0.37271       -0.28795
H         -0.37596        4.91024        0.34966
H         -1.59715        3.87589        1.02581
H         -2.87620        5.72016        0.64125
H         -3.19413        4.88135       -0.85968
H         -2.67342        7.35357       -1.09277
H         -1.13808        7.07857       -0.32753
H         -0.54423        7.30106       -2.47706
H          0.30906        5.27945       -3.41336
H          0.59266        5.35167       -1.69588
H         -1.76130        3.77472       -2.87657
H         -0.14216        3.13820       -2.80789
H         -3.70894        4.76727       -3.05434
H         -4.26160        6.38135       -2.49933
H         -4.52232        5.86587       -4.16405

--Link1--
%chk=JID_8946.chk
%mem=8GB
%nprocshared=4
# B3LYP/6-311++G(d,p) empiricaldispersion=gd3bj scf=xqc pop=npa geom=check

CID_114237733_JID_8946_Energie_neutraal

0 1

--Link1--
%chk=JID_8946.chk
%mem=8GB
%nprocshared=4
# B3LYP/6-311++G(d,p) empiricaldispersion=gd3bj scf=xqc pop=npa geom=check

CID_114237733_JID_8946_Energie_kation

1 2

--Link1--
%chk=JID_8946.chk
%mem=8GB
%nprocshared=4
# B3LYP/6-311++G(d,p) empiricaldispersion=gd3bj scf=xqc pop=npa geom=check

CID_114237733_JID_8946_Energie_anion

-1 2
