%chk=JID_3788.chk
%mem=8GB
%nprocshared=4
# opt freq B3LYP/6-31G(d) empiricaldispersion=gd3bj scf=xqc

CID_96590935_JID_3788_neutraal

0 1
C          1.05976       -0.04985        0.06280
N          0.69353       -0.99759        1.11069
C         -0.70531       -0.83438        1.49632
C          1.04322       -2.39222        0.78406
C          0.39789       -3.05628       -0.44589
C          1.15680       -2.84814       -1.70474
N          2.29947       -3.49514       -1.97080
O          2.65159       -3.01680       -3.23553
C          1.67434       -2.13662       -3.60517
N          0.72450       -2.00765       -2.69844
C          1.78772       -1.47691       -4.88046
O          2.66573       -1.60615       -5.72406
O          0.76463       -0.61516       -5.11086
H          0.97289        0.97644        0.43742
H          0.42194       -0.13460       -0.82227
H          2.10435       -0.18287       -0.23920
H         -1.39670       -1.00749        0.66518
H         -0.96597       -1.51809        2.31169
H         -0.87939        0.17976        1.87362
H          2.13707       -2.46600        0.72031
H          0.77865       -2.99872        1.66114
H          0.34566       -4.13768       -0.26098
H         -0.63978       -2.73181       -0.57592
H          0.96445       -0.24227       -5.99327

--Link1--
%chk=JID_3788.chk
%mem=8GB
%nprocshared=4
# B3LYP/6-311++G(d,p) empiricaldispersion=gd3bj scf=xqc pop=npa geom=check

CID_96590935_JID_3788_Energie_neutraal

0 1

--Link1--
%chk=JID_3788.chk
%mem=8GB
%nprocshared=4
# B3LYP/6-311++G(d,p) empiricaldispersion=gd3bj scf=xqc pop=npa geom=check

CID_96590935_JID_3788_Energie_kation

1 2

--Link1--
%chk=JID_3788.chk
%mem=8GB
%nprocshared=4
# B3LYP/6-311++G(d,p) empiricaldispersion=gd3bj scf=xqc pop=npa geom=check

CID_96590935_JID_3788_Energie_anion

-1 2
