%chk=JID_6574.chk
%mem=8GB
%nprocshared=4
# opt freq B3LYP/6-31G(d) empiricaldispersion=gd3bj scf=xqc

CID_104538425_JID_6574_neutraal

0 1
C          1.05641       -0.06685        0.04846
O          1.23261       -1.25091        0.82393
C          2.40801       -1.98003        0.45499
C          2.03697       -3.31330       -0.21215
N          1.49102       -3.13601       -1.58484
C          0.31007       -3.94530       -1.94747
C         -0.97024       -3.52210       -1.23471
C         -1.47691       -2.19300       -1.77061
N         -1.89724       -1.09041       -2.21519
S          2.51086       -2.47395       -2.73896
O          2.04246       -1.14697       -3.05127
O          3.87527       -2.69954       -2.32109
N          2.28259       -3.47922       -4.07244
C          1.40937       -2.97319       -5.15266
C          1.59705       -3.45474       -6.56544
C          0.39504       -3.88797       -5.78384
H          0.20684        0.48419        0.46095
H          0.82794       -0.32020       -0.98642
H          1.94324        0.57174        0.10251
H          3.08997       -1.37415       -0.15065
H          2.93204       -2.20538        1.39072
H          2.91193       -3.97116       -0.26093
H          1.29927       -3.82453        0.41578
H          0.11431       -3.91411       -3.01872
H          0.53215       -4.99111       -1.70189
H         -1.74776       -4.27465       -1.40952
H         -0.83171       -3.43821       -0.15261
H          3.21430       -3.72276       -4.41605
H          1.11578       -1.93033       -5.04688
H          1.45102       -2.73486       -7.36309
H          2.36162       -4.19405       -6.76843
H          0.35195       -4.91755       -5.45041
H         -0.56699       -3.46165       -6.04463

--Link1--
%chk=JID_6574.chk
%mem=8GB
%nprocshared=4
# B3LYP/6-311++G(d,p) empiricaldispersion=gd3bj scf=xqc pop=npa geom=check

CID_104538425_JID_6574_Energie_neutraal

0 1

--Link1--
%chk=JID_6574.chk
%mem=8GB
%nprocshared=4
# B3LYP/6-311++G(d,p) empiricaldispersion=gd3bj scf=xqc pop=npa geom=check

CID_104538425_JID_6574_Energie_kation

1 2

--Link1--
%chk=JID_6574.chk
%mem=8GB
%nprocshared=4
# B3LYP/6-311++G(d,p) empiricaldispersion=gd3bj scf=xqc pop=npa geom=check

CID_104538425_JID_6574_Energie_anion

-1 2
