%chk=JID_10484.chk
%mem=8GB
%nprocshared=4
# opt freq B3LYP/6-31G(d) empiricaldispersion=gd3bj scf=xqc

CID_62215809_JID_10484_neutraal

0 1
C         -1.50500        0.02200       -0.20100
C         -1.03064        1.15533        0.69535
C          0.49134        1.17206        0.76911
N          0.98753       -0.12815        1.27286
C          0.60867       -1.27609        0.39361
C         -0.93267       -1.30922        0.27378
C          1.11407       -2.61508        0.99670
C          0.80388       -3.85795        0.16693
C          1.47705       -3.81904       -1.17458
O          2.61949       -4.16285       -1.42281
O          0.68227       -3.31966       -2.13991
C          2.38693        0.01096        1.40784
N          3.24418       -0.24341        0.39461
C          4.56870       -0.08141        0.60968
N          5.18541        0.32700        1.72680
C          4.32070        0.57485        2.72542
C          2.95506        0.42654        2.59768
N          2.45058        0.75520        3.82381
C          3.50490        1.09967        4.62296
N          4.65149        1.00227        3.98512
H         -2.59979       -0.02157       -0.19923
H         -1.19133        0.20987       -1.23510
H         -1.39574        2.11320        0.30873
H         -1.45003        1.02897        1.70123
H          0.90674        1.39351       -0.22413
H          0.78682        1.98711        1.44287
H          1.03094       -1.12800       -0.60914
H         -1.37462       -1.55751        1.24771
H         -1.25005       -2.08576       -0.42954
H          2.19991       -2.58067        1.14309
H          0.68206       -2.74501        1.99774
H          1.17128       -4.75075        0.68747
H         -0.27123       -4.01778        0.03879
H          1.24845       -3.33927       -2.94088
H          5.21487       -0.31030       -0.23256
H          1.47286        0.73386        4.07755
H          3.37761        1.40791        5.65245

--Link1--
%chk=JID_10484.chk
%mem=8GB
%nprocshared=4
# B3LYP/6-311++G(d,p) empiricaldispersion=gd3bj scf=xqc pop=npa geom=check

CID_62215809_JID_10484_Energie_neutraal

0 1

--Link1--
%chk=JID_10484.chk
%mem=8GB
%nprocshared=4
# B3LYP/6-311++G(d,p) empiricaldispersion=gd3bj scf=xqc pop=npa geom=check

CID_62215809_JID_10484_Energie_kation

1 2

--Link1--
%chk=JID_10484.chk
%mem=8GB
%nprocshared=4
# B3LYP/6-311++G(d,p) empiricaldispersion=gd3bj scf=xqc pop=npa geom=check

CID_62215809_JID_10484_Energie_anion

-1 2
