%chk=JID_10194.chk
%mem=8GB
%nprocshared=4
# opt freq B3LYP/6-31G(d) empiricaldispersion=gd3bj scf=xqc

CID_62751517_JID_10194_neutraal

0 1
C          1.05968       -0.04576        0.06591
C          1.06505        0.42560       -1.38027
C          1.78493       -0.53065       -2.33463
N          0.97059       -1.69738       -2.68157
C          0.04801       -1.57446       -3.80507
C          0.73500       -1.87141       -5.13044
C          1.18039       -2.87112       -2.01229
N          1.88373       -2.94789       -0.90075
C          1.92186       -4.23487       -0.38664
C          1.30904       -5.17383       -1.18816
S          0.56518       -4.41086       -2.52295
C          2.63352       -4.44338        0.92056
C          1.81179       -5.22466        1.97652
C          1.77419       -6.72845        1.73566
C          0.54086       -7.39567        1.66017
C          0.48825       -8.77454        1.44410
C          1.66572       -9.50718        1.31251
C          2.89729       -8.86359        1.39971
C          2.95231       -7.48501        1.61228
N          2.32192       -4.96943        3.33561
H          0.44014       -0.93825        0.19139
H          0.64509        0.73465        0.71232
H          2.07290       -0.26879        0.41445
H          0.03484        0.60283       -1.70938
H          1.57994        1.39350       -1.41466
H          2.01346        0.02258       -3.25461
H          2.76219       -0.81968       -1.92703
H         -0.82895       -2.22025       -3.67985
H         -0.35166       -0.55336       -3.84186
H          1.13547       -2.88884       -5.16204
H          0.02342       -1.76265       -5.95518
H          1.56616       -1.18188       -5.30955
H          1.23163       -6.24195       -1.04954
H          3.60476       -4.91269        0.72630
H          2.85628       -3.44607        1.32632
H          0.78473       -4.83655        1.95607
H         -0.39122       -6.84318        1.76278
H         -0.47322       -9.27792        1.38045
H          1.62394      -10.58059        1.14682
H          3.81718       -9.43518        1.30503
H          3.92736       -7.00870        1.68470
H          1.75101       -5.49727        3.99592
H          3.26368       -5.34625        3.42065

--Link1--
%chk=JID_10194.chk
%mem=8GB
%nprocshared=4
# B3LYP/6-311++G(d,p) empiricaldispersion=gd3bj scf=xqc pop=npa geom=check

CID_62751517_JID_10194_Energie_neutraal

0 1

--Link1--
%chk=JID_10194.chk
%mem=8GB
%nprocshared=4
# B3LYP/6-311++G(d,p) empiricaldispersion=gd3bj scf=xqc pop=npa geom=check

CID_62751517_JID_10194_Energie_kation

1 2

--Link1--
%chk=JID_10194.chk
%mem=8GB
%nprocshared=4
# B3LYP/6-311++G(d,p) empiricaldispersion=gd3bj scf=xqc pop=npa geom=check

CID_62751517_JID_10194_Energie_anion

-1 2
