%chk=JID_8450.chk
%mem=8GB
%nprocshared=4
# opt freq B3LYP/6-31G(d) empiricaldispersion=gd3bj scf=xqc

CID_76984678_JID_8450_neutraal

0 1
C         -2.55700       -0.42200       -0.01100
C         -1.12626       -0.20018        0.31663
C         -0.29095       -1.06830        0.99199
S          1.27037       -0.38437        1.15154
C          0.72702        1.02084        0.31934
N         -0.53522        0.99143       -0.06840
C          1.67448        2.18397        0.06900
C          1.86095        2.35228       -1.44328
N          1.14931        3.38216        0.74150
C          1.98017        4.57039        0.65895
C          1.49766        5.52743       -0.39020
C          1.03328        6.75895       -0.12003
C          0.58195        7.71247       -1.14289
C          0.82936        9.07813       -0.95171
C          0.39289       10.01906       -1.88798
C         -0.30630        9.60468       -3.01941
C         -0.57414        8.25112       -3.21229
C         -0.13711        7.31009       -2.27611
H         -3.19346        0.06073        0.73687
H         -2.79647       -0.00094       -0.99250
H         -2.79750       -1.48957       -0.03321
H         -0.51840       -2.04588        1.39168
H          2.65155        1.94497        0.50857
H          0.93539        2.67949       -1.93117
H          2.64648        3.07926       -1.67184
H          2.15643        1.40371       -1.90711
H          0.20248        3.56844        0.40857
H          1.95364        5.05706        1.64130
H          3.03339        4.32452        0.47876
H          1.57061        5.19498       -1.42152
H          0.98915        7.11244        0.90791
H          1.37306        9.42155       -0.07460
H          0.59796       11.07485       -1.73173
H         -0.64749       10.33623       -3.74709
H         -1.12905        7.92590       -4.08838
H         -0.37577        6.26169       -2.43700

--Link1--
%chk=JID_8450.chk
%mem=8GB
%nprocshared=4
# B3LYP/6-311++G(d,p) empiricaldispersion=gd3bj scf=xqc pop=npa geom=check

CID_76984678_JID_8450_Energie_neutraal

0 1

--Link1--
%chk=JID_8450.chk
%mem=8GB
%nprocshared=4
# B3LYP/6-311++G(d,p) empiricaldispersion=gd3bj scf=xqc pop=npa geom=check

CID_76984678_JID_8450_Energie_kation

1 2

--Link1--
%chk=JID_8450.chk
%mem=8GB
%nprocshared=4
# B3LYP/6-311++G(d,p) empiricaldispersion=gd3bj scf=xqc pop=npa geom=check

CID_76984678_JID_8450_Energie_anion

-1 2
