%chk=JID_3308.chk
%mem=8GB
%nprocshared=4
# opt freq B3LYP/6-31G(d) empiricaldispersion=gd3bj scf=xqc

CID_14953600_JID_3308_neutraal

0 1
C          0.92424       -0.02975       -0.05809
C          0.79334       -1.52946       -0.31238
C          1.05600       -2.44517        0.91417
C          0.23991       -1.94887        2.12960
C          0.61908       -3.91251        0.61677
C          1.00599       -4.53403       -0.73534
C          2.49631       -4.77187       -0.99371
C          3.21074       -5.69865        0.00742
C          2.62420       -7.11093        0.01234
C          4.70468       -5.75975       -0.32242
C          2.53544       -2.40822        1.29708
O          3.44877       -1.90794        0.66100
O          2.80434       -3.02190        2.46730
H          0.14469        0.33153        0.61918
H          0.81337        0.51631       -1.00091
H          1.89895        0.22908        0.36439
H         -0.21943       -1.71478       -0.69304
H          1.48466       -1.78609       -1.12445
H         -0.81183       -1.79511        1.86317
H          0.26585       -2.67314        2.95250
H          0.63502       -1.00702        2.52661
H          0.95528       -4.57547        1.42356
H         -0.47931       -3.94552        0.65809
H          0.47788       -5.49136       -0.82675
H          0.60648       -3.91785       -1.54935
H          2.59489       -5.20022       -2.00050
H          3.01321       -3.80814       -1.03852
H          3.11723       -5.28978        1.01835
H          2.64462       -7.55334       -0.98933
H          3.19354       -7.76520        0.68150
H          1.58845       -7.11028        0.36496
H          5.15152       -4.76045       -0.28644
H          5.23744       -6.38799        0.39933
H          4.87529       -6.17284       -1.32242
H          3.77482       -2.92370        2.56418

--Link1--
%chk=JID_3308.chk
%mem=8GB
%nprocshared=4
# B3LYP/6-311++G(d,p) empiricaldispersion=gd3bj scf=xqc pop=npa geom=check

CID_14953600_JID_3308_Energie_neutraal

0 1

--Link1--
%chk=JID_3308.chk
%mem=8GB
%nprocshared=4
# B3LYP/6-311++G(d,p) empiricaldispersion=gd3bj scf=xqc pop=npa geom=check

CID_14953600_JID_3308_Energie_kation

1 2

--Link1--
%chk=JID_3308.chk
%mem=8GB
%nprocshared=4
# B3LYP/6-311++G(d,p) empiricaldispersion=gd3bj scf=xqc pop=npa geom=check

CID_14953600_JID_3308_Energie_anion

-1 2
