%chk=JID_10556.chk
%mem=8GB
%nprocshared=4
# opt freq B3LYP/6-31G(d) empiricaldispersion=gd3bj scf=xqc

CID_144049703_JID_10556_neutraal

0 1
C          0.93442        0.05401       -0.05275
C          1.28321        0.35311       -1.49344
C          1.65071       -0.25114        4.06161
C          0.24266       -0.23095        3.54510
C         -0.44504       -1.43353        3.34126
C         -1.74366       -1.42977        2.82322
C         -2.36820       -0.22242        2.48812
C         -1.67791        0.97960        2.68658
C         -0.38401        0.97604        3.21543
C         -3.71822       -0.21181        1.93376
N         -4.04038        0.57293        0.89527
N         -5.35914        0.32373        0.66214
C         -6.16593        0.87482       -0.36535
C         -7.44763        0.48115       -0.44687
C         -7.92152       -0.49416        0.58568
N         -7.18106       -1.01365        1.52235
C         -5.87606       -0.61301        1.55531
C         -4.82966       -0.97174        2.37024
C         -9.37562       -0.89301        0.53706
N         -5.58120        1.78119       -1.24562
H          1.17957       -0.98274        0.19584
H         -0.13517        0.20563        0.11385
H          1.49122        0.71257        0.61994
H          2.35101        0.19618       -1.67197
H          0.72085       -0.29930       -2.16811
H          1.04146        1.39167       -1.73876
H          1.71257       -0.85153        4.97485
H          2.32007       -0.67493        3.30595
H          2.00379        0.75691        4.30245
H          0.03195       -2.38296        3.57449
H         -2.24965       -2.37832        2.66096
H         -2.14602        1.92616        2.42398
H          0.13341        1.92283        3.35149
H         -8.13771        0.84959       -1.19189
H         -4.87408       -1.67853        3.18543
H         -9.45103       -1.98274        0.48046
H         -9.87159       -0.54831        1.44929
H         -9.88399       -0.45870       -0.32740
H         -4.55890        1.73681       -1.18016
H         -5.91396        1.69883       -2.20148

--Link1--
%chk=JID_10556.chk
%mem=8GB
%nprocshared=4
# B3LYP/6-311++G(d,p) empiricaldispersion=gd3bj scf=xqc pop=npa geom=check

CID_144049703_JID_10556_Energie_neutraal

0 1

--Link1--
%chk=JID_10556.chk
%mem=8GB
%nprocshared=4
# B3LYP/6-311++G(d,p) empiricaldispersion=gd3bj scf=xqc pop=npa geom=check

CID_144049703_JID_10556_Energie_kation

1 2

--Link1--
%chk=JID_10556.chk
%mem=8GB
%nprocshared=4
# B3LYP/6-311++G(d,p) empiricaldispersion=gd3bj scf=xqc pop=npa geom=check

CID_144049703_JID_10556_Energie_anion

-1 2
