%chk=JID_4996.chk
%mem=8GB
%nprocshared=4
# opt freq B3LYP/6-31G(d) empiricaldispersion=gd3bj scf=xqc

CID_53787988_JID_4996_neutraal

0 1
C          1.09385       -0.00394       -0.03429
C          0.68474        1.42365       -0.33880
O          1.50711        1.95264       -1.38923
C          2.65180        2.57159       -1.00132
O          3.03363        2.66801        0.15999
C          3.43835        3.11683       -2.15602
C          2.82964        2.87961       -3.50881
N          2.06039        3.68436       -4.18220
N          1.76977        4.85744       -3.56181
C          2.34540        6.05817       -4.21636
C          2.04910        7.32631       -3.40842
O          0.63972        7.52501       -3.24774
C          0.05295        6.38846       -2.60266
C          0.31561        5.10142       -3.39124
H          1.03774       -0.62060       -0.93740
H          0.44488       -0.43926        0.73077
H          2.12937       -0.04875        0.31776
H         -0.34870        1.44341       -0.69977
H          0.72392        2.05211        0.55831
H          3.59634        4.18538       -1.98650
H          4.41390        2.61841       -2.15767
H          3.03182        1.89384       -3.96195
H          1.93398        6.15758       -5.22901
H          3.43142        5.93999       -4.30581
H          2.52267        7.28729       -2.41979
H          2.44813        8.20090       -3.93192
H         -1.02486        6.56779       -2.53502
H          0.44134        6.31381       -1.57967
H         -0.16306        5.16646       -4.37697
H         -0.13594        4.25848       -2.85530

--Link1--
%chk=JID_4996.chk
%mem=8GB
%nprocshared=4
# B3LYP/6-311++G(d,p) empiricaldispersion=gd3bj scf=xqc pop=npa geom=check

CID_53787988_JID_4996_Energie_neutraal

0 1

--Link1--
%chk=JID_4996.chk
%mem=8GB
%nprocshared=4
# B3LYP/6-311++G(d,p) empiricaldispersion=gd3bj scf=xqc pop=npa geom=check

CID_53787988_JID_4996_Energie_kation

1 2

--Link1--
%chk=JID_4996.chk
%mem=8GB
%nprocshared=4
# B3LYP/6-311++G(d,p) empiricaldispersion=gd3bj scf=xqc pop=npa geom=check

CID_53787988_JID_4996_Energie_anion

-1 2
