%chk=JID_9898.chk
%mem=8GB
%nprocshared=4
# opt freq B3LYP/6-31G(d) empiricaldispersion=gd3bj scf=xqc

CID_106448839_JID_9898_neutraal

0 1
C          0.99497        0.07937        0.06062
C          1.24887        1.06923       -1.06844
N          1.40046        0.33451       -2.32455
C          1.51455        1.16495       -3.55443
C          2.59994        2.25415       -3.39988
C          1.97182        0.21863       -4.70543
C          1.16958       -1.07319       -4.93684
C         -0.28899       -0.89737       -5.34013
O         -0.37202        0.00225       -6.44904
C         -1.64363       -0.05012       -7.11695
C         -2.81469        0.40454       -6.24101
O         -3.25391       -0.68946       -5.43095
C         -4.14493       -0.26213       -4.40124
C         -4.60469       -1.46604       -3.56868
C         -5.37768       -2.47033       -4.42502
C         -3.41989       -2.15791       -2.89198
C          0.16680        1.89735       -3.88508
O         -0.81842        1.95603       -3.15155
N          0.11807        2.58620       -5.06975
H          0.07858       -0.49437       -0.11523
H          0.88219        0.61218        1.01037
H          1.82700       -0.62501        0.16729
H          0.41665        1.77673       -1.09851
H          2.16004        1.62995       -0.83425
H          2.21855       -0.26808       -2.24747
H          3.54311        1.83112       -3.03500
H          2.81193        2.74209       -4.35874
H          2.28806        3.04462       -2.70769
H          2.03547        0.76666       -5.65290
H          3.00562       -0.09644       -4.49840
H          1.67627       -1.61523       -5.74655
H          1.22551       -1.72281       -4.05606
H         -0.86732       -0.50919       -4.49782
H         -0.69669       -1.87635       -5.61875
H         -1.55717        0.63136       -7.96937
H         -1.80084       -1.06188       -7.50765
H         -2.51126        1.24535       -5.60888
H         -3.65368        0.70818       -6.87608
H         -5.01212        0.23337       -4.85384
H         -3.63230        0.45919       -3.75351
H         -5.27779       -1.09628       -2.78513
H         -4.74766       -2.90422       -5.20876
H         -5.75858       -3.29130       -3.80815
H         -6.23554       -1.98936       -4.90669
H         -2.85842       -1.44972       -2.27351
H         -3.76666       -2.96793       -2.24142
H         -2.72991       -2.58949       -3.62486
H          0.53809        2.14231       -5.87848
H         -0.79752        2.97452       -5.25485

--Link1--
%chk=JID_9898.chk
%mem=8GB
%nprocshared=4
# B3LYP/6-311++G(d,p) empiricaldispersion=gd3bj scf=xqc pop=npa geom=check

CID_106448839_JID_9898_Energie_neutraal

0 1

--Link1--
%chk=JID_9898.chk
%mem=8GB
%nprocshared=4
# B3LYP/6-311++G(d,p) empiricaldispersion=gd3bj scf=xqc pop=npa geom=check

CID_106448839_JID_9898_Energie_kation

1 2

--Link1--
%chk=JID_9898.chk
%mem=8GB
%nprocshared=4
# B3LYP/6-311++G(d,p) empiricaldispersion=gd3bj scf=xqc pop=npa geom=check

CID_106448839_JID_9898_Energie_anion

-1 2
