%chk=JID_4982.chk
%mem=8GB
%nprocshared=4
# opt freq B3LYP/6-31G(d) empiricaldispersion=gd3bj scf=xqc

CID_64320823_JID_4982_neutraal

0 1
C          1.06100       -0.02048        0.07655
C          1.00087       -1.35706       -0.64631
C          1.42138       -2.54289        0.22515
C          0.58761       -2.76070        1.49362
C         -0.90140       -2.98311        1.24081
O         -1.06847       -4.11930        0.38693
C         -2.35646       -4.37814        0.02979
O         -3.32902       -3.71904        0.38029
C         -2.42661       -5.53380       -0.82009
N         -1.43308       -6.29966       -1.23398
C         -2.05927       -7.24177       -1.98618
N         -3.37539       -7.10031       -2.09989
N         -3.59133       -6.01835       -1.33704
N         -1.32691       -8.18787       -2.56071
H          0.32445        0.03260        0.88359
H          0.84570        0.79429       -0.62224
H          2.05474        0.15188        0.50175
H         -0.00795       -1.51406       -1.04347
H          1.67013       -1.31381       -1.51419
H          1.39150       -3.45205       -0.38802
H          2.46972       -2.41082        0.52123
H          0.99071       -3.64620        2.00136
H          0.71816       -1.91740        2.18061
H         -1.40215       -3.17805        2.19643
H         -1.35178       -2.09586        0.78229
H         -4.53278       -5.66223       -1.21156
H         -0.33362       -8.01728       -2.63942
H         -1.73987       -8.68393       -3.33844

--Link1--
%chk=JID_4982.chk
%mem=8GB
%nprocshared=4
# B3LYP/6-311++G(d,p) empiricaldispersion=gd3bj scf=xqc pop=npa geom=check

CID_64320823_JID_4982_Energie_neutraal

0 1

--Link1--
%chk=JID_4982.chk
%mem=8GB
%nprocshared=4
# B3LYP/6-311++G(d,p) empiricaldispersion=gd3bj scf=xqc pop=npa geom=check

CID_64320823_JID_4982_Energie_kation

1 2

--Link1--
%chk=JID_4982.chk
%mem=8GB
%nprocshared=4
# B3LYP/6-311++G(d,p) empiricaldispersion=gd3bj scf=xqc pop=npa geom=check

CID_64320823_JID_4982_Energie_anion

-1 2
