%chk=JID_10891.chk
%mem=8GB
%nprocshared=4
# opt freq B3LYP/6-31G(d) empiricaldispersion=gd3bj scf=xqc

CID_47295024_JID_10891_neutraal

0 1
C         -2.74100        0.87200        0.63000
C         -2.68435        0.39868       -0.81309
C         -1.22350        0.60373       -1.19886
C         -0.44269        0.34306        0.09127
C         -1.46056        0.31047        1.23691
C          0.39000       -0.94847        0.02887
O         -0.05215       -2.06942       -0.18389
N          1.69575       -0.62982        0.27665
C          1.83959        0.71076        0.45365
O          2.86579        1.32132        0.69936
N          0.60751        1.30489        0.31284
C          2.77887       -1.57868        0.33607
C          3.39968       -1.71187       -1.02624
C          4.37793       -0.87085       -1.53199
S          4.87734       -1.30709       -3.10988
C          3.80119       -2.61908       -3.14336
C          3.06366       -2.73178       -1.98375
N          3.72875       -3.48022       -4.29564
O          4.43154       -3.21065       -5.27825
O          2.95477       -4.44382       -4.21218
H         -2.72923        1.96767        0.67046
H         -3.63600        0.51926        1.15028
H         -3.36626        0.95609       -1.46159
H         -2.94537       -0.66457       -0.87382
H         -1.08289        1.63744       -1.53905
H         -0.93721       -0.05683       -2.02400
H         -1.64175       -0.71622        1.57771
H         -1.15155        0.89649        2.10921
H          0.49121        2.30264        0.43693
H          3.52720       -1.23277        1.05818
H          2.39601       -2.54826        0.67368
H          4.82303       -0.01024       -1.04618
H          2.31768       -3.50325       -1.81754

--Link1--
%chk=JID_10891.chk
%mem=8GB
%nprocshared=4
# B3LYP/6-311++G(d,p) empiricaldispersion=gd3bj scf=xqc pop=npa geom=check

CID_47295024_JID_10891_Energie_neutraal

0 1

--Link1--
%chk=JID_10891.chk
%mem=8GB
%nprocshared=4
# B3LYP/6-311++G(d,p) empiricaldispersion=gd3bj scf=xqc pop=npa geom=check

CID_47295024_JID_10891_Energie_kation

1 2

--Link1--
%chk=JID_10891.chk
%mem=8GB
%nprocshared=4
# B3LYP/6-311++G(d,p) empiricaldispersion=gd3bj scf=xqc pop=npa geom=check

CID_47295024_JID_10891_Energie_anion

-1 2
