%chk=JID_7174.chk
%mem=8GB
%nprocshared=4
# opt freq B3LYP/6-31G(d) empiricaldispersion=gd3bj scf=xqc

CID_130149977_JID_7174_neutraal

0 1
C         -1.50200        0.71300        0.14900
C         -1.49124       -0.79003       -0.12713
N         -0.32235       -1.40451        0.48863
C          0.97077       -1.01624       -0.06111
C          1.05351        0.46781       -0.29154
C         -0.18172        1.34065       -0.20435
C          0.89664        1.43935        0.84937
C         -0.47635       -2.23490        1.58136
O         -1.56257       -2.54149        2.05758
O          0.71437       -2.67217        2.06917
C          0.64585       -3.48223        3.25021
C          0.65719       -2.65755        4.51739
C          1.24291       -1.38387        4.56634
C          1.26041       -0.65439        5.75685
C          0.70884       -1.19586        6.91595
C          0.14087       -2.46751        6.88654
C          0.11764       -3.19556        5.69545
H         -1.72287        0.89673        1.20753
H         -2.30386        1.18360       -0.43085
H         -2.41821       -1.24095        0.24126
H         -1.43708       -0.98376       -1.20525
H          1.07093       -1.53486       -1.02165
H          1.80352       -1.33497        0.57166
H          1.80012        0.70950       -1.04007
H         -0.28155        2.16024       -0.90563
H          1.52146        2.32569        0.85078
H          0.69393        1.04642        1.84005
H         -0.22267       -4.15135        3.21496
H          1.53780       -4.11908        3.24921
H          1.68454       -0.94631        3.67387
H          1.70481        0.33708        5.77861
H          0.72203       -0.62735        7.84190
H         -0.28700       -2.89263        7.79062
H         -0.33194       -4.18630        5.69046

--Link1--
%chk=JID_7174.chk
%mem=8GB
%nprocshared=4
# B3LYP/6-311++G(d,p) empiricaldispersion=gd3bj scf=xqc pop=npa geom=check

CID_130149977_JID_7174_Energie_neutraal

0 1

--Link1--
%chk=JID_7174.chk
%mem=8GB
%nprocshared=4
# B3LYP/6-311++G(d,p) empiricaldispersion=gd3bj scf=xqc pop=npa geom=check

CID_130149977_JID_7174_Energie_kation

1 2

--Link1--
%chk=JID_7174.chk
%mem=8GB
%nprocshared=4
# B3LYP/6-311++G(d,p) empiricaldispersion=gd3bj scf=xqc pop=npa geom=check

CID_130149977_JID_7174_Energie_anion

-1 2
