%chk=JID_6095.chk
%mem=8GB
%nprocshared=4
# opt freq B3LYP/6-31G(d) empiricaldispersion=gd3bj scf=xqc

CID_115131382_JID_6095_neutraal

0 1
C          3.06900        0.39100        0.00800
C          1.72876       -0.19493       -0.31031
C          1.00065        0.31202       -1.39707
C         -0.33307       -0.05578       -1.61601
C         -0.94869       -0.92377       -0.69614
C         -0.16742       -1.55233        0.29041
C          1.16762       -1.19485        0.49743
C          1.92469       -1.80669        1.64426
C         -2.44888       -1.08564       -0.61958
C         -3.06787       -0.55401        0.69989
N         -3.04096        0.91283        0.91006
C         -4.02285        1.28747        1.93510
C         -1.70335        1.47087        1.25660
C         -1.02889        0.89444        2.49079
N         -0.46937        0.41624        3.51466
C         -1.08864        0.59627       -2.74049
H          3.33732        1.19185       -0.68951
H          3.06905        0.82224        1.01436
H          3.84785       -0.37507       -0.06033
H          1.46235        1.05310       -2.04800
H         -0.63285       -2.26472        0.97071
H          2.05298       -1.07542        2.44808
H          1.39654       -2.67392        2.05492
H          2.90663       -2.15836        1.31217
H         -2.95659       -0.60657       -1.46268
H         -2.67636       -2.15612       -0.70919
H         -4.12146       -0.86409        0.65385
H         -2.65004       -1.08072        1.56660
H         -3.82031        0.81474        2.90256
H         -4.04332        2.37401        2.07605
H         -5.03285        1.00154        1.62004
H         -1.02634        1.42101        0.40787
H         -1.81966        2.55024        1.42585
H         -1.76451        1.36312       -2.34938
H         -0.40858        1.07448       -3.45379
H         -1.66133       -0.14912       -3.30159

--Link1--
%chk=JID_6095.chk
%mem=8GB
%nprocshared=4
# B3LYP/6-311++G(d,p) empiricaldispersion=gd3bj scf=xqc pop=npa geom=check

CID_115131382_JID_6095_Energie_neutraal

0 1

--Link1--
%chk=JID_6095.chk
%mem=8GB
%nprocshared=4
# B3LYP/6-311++G(d,p) empiricaldispersion=gd3bj scf=xqc pop=npa geom=check

CID_115131382_JID_6095_Energie_kation

1 2

--Link1--
%chk=JID_6095.chk
%mem=8GB
%nprocshared=4
# B3LYP/6-311++G(d,p) empiricaldispersion=gd3bj scf=xqc pop=npa geom=check

CID_115131382_JID_6095_Energie_anion

-1 2
