%chk=JID_1727.chk
%mem=8GB
%nprocshared=4
# opt freq B3LYP/6-31G(d) empiricaldispersion=gd3bj scf=xqc

CID_123977789_JID_1727_neutraal

0 1
C          0.93900        1.40400       -0.00200
C          2.11597        0.76151       -0.00285
C          2.14300       -0.68000       -0.00200
C          0.99537       -1.38206        0.00050
N         -0.22191       -0.71102        0.00187
C         -0.28571        0.68106        0.00027
C         -1.61624        1.02266        0.00089
C         -2.29185       -0.20816        0.00272
N         -1.46402       -1.25431        0.00346
C          3.46784       -1.42508       -0.00969
N          4.56690       -2.04319       -0.01606
H          0.90775        2.49039       -0.00293
H          3.05328        1.31041       -0.00465
H          0.93836       -2.46299       -0.00004
H         -2.04150        2.01590       -0.00015
H         -3.35974       -0.38782        0.00346

--Link1--
%chk=JID_1727.chk
%mem=8GB
%nprocshared=4
# B3LYP/6-311++G(d,p) empiricaldispersion=gd3bj scf=xqc pop=npa geom=check

CID_123977789_JID_1727_Energie_neutraal

0 1

--Link1--
%chk=JID_1727.chk
%mem=8GB
%nprocshared=4
# B3LYP/6-311++G(d,p) empiricaldispersion=gd3bj scf=xqc pop=npa geom=check

CID_123977789_JID_1727_Energie_kation

1 2

--Link1--
%chk=JID_1727.chk
%mem=8GB
%nprocshared=4
# B3LYP/6-311++G(d,p) empiricaldispersion=gd3bj scf=xqc pop=npa geom=check

CID_123977789_JID_1727_Energie_anion

-1 2
