%chk=JID_3013.chk
%mem=8GB
%nprocshared=4
# opt freq B3LYP/6-31G(d) empiricaldispersion=gd3bj scf=xqc

CID_131248057_JID_3013_neutraal

0 1
C          2.49600       -0.00700       -0.12600
C          1.02264       -0.06465        0.28558
C          0.33038        1.27982        0.01060
C         -1.13256        1.25817        0.44651
C         -1.90086        0.09963       -0.18010
C         -1.21191       -1.24120        0.07480
C          0.26693       -1.25682       -0.35584
C          0.37832       -1.29964       -1.86643
C          0.92662       -2.32571       -2.53875
C          1.05764       -2.40600       -4.01019
O          1.57592       -3.36540       -4.56216
O          0.54262       -1.31329       -4.62323
C          0.64500       -1.34722       -6.04652
H          2.61514        0.23671       -1.18669
H          3.02416        0.76064        0.44999
H          2.99091       -0.96500        0.06469
H          1.00542       -0.22275        1.37374
H          0.85017        2.08157        0.54919
H          0.39073        1.53074       -1.05539
H         -1.61124        2.20635        0.17669
H         -1.18321        1.17723        1.53946
H         -2.00570        0.26905       -1.25809
H         -2.91651        0.07090        0.23120
H         -1.76764       -2.03908       -0.43341
H         -1.26675       -1.46304        1.14880
H          0.70867       -2.17926        0.04722
H         -0.01017       -0.44393       -2.41468
H          1.32432       -3.19081       -2.01837
H          1.69481       -1.37764       -6.35473
H          0.09651       -2.20367       -6.45123
H          0.19526       -0.43160       -6.44045

--Link1--
%chk=JID_3013.chk
%mem=8GB
%nprocshared=4
# B3LYP/6-311++G(d,p) empiricaldispersion=gd3bj scf=xqc pop=npa geom=check

CID_131248057_JID_3013_Energie_neutraal

0 1

--Link1--
%chk=JID_3013.chk
%mem=8GB
%nprocshared=4
# B3LYP/6-311++G(d,p) empiricaldispersion=gd3bj scf=xqc pop=npa geom=check

CID_131248057_JID_3013_Energie_kation

1 2

--Link1--
%chk=JID_3013.chk
%mem=8GB
%nprocshared=4
# B3LYP/6-311++G(d,p) empiricaldispersion=gd3bj scf=xqc pop=npa geom=check

CID_131248057_JID_3013_Energie_anion

-1 2
