%chk=JID_1832.chk
%mem=8GB
%nprocshared=4
# opt=(cartesian,calcfc,maxcycle=500) freq B3LYP/6-31G(d) empiricaldispersion=gd3bj scf=xqc

CID_102924226_JID_1832_neutraal

0 1
N       -1.8663 -1.1726 0.6263
N       2.4256  -0.2461 -1.0114
N       2.0393  0.6560  1.1895
N       -1.4993 -2.4848 0.2241
C       -1.2802 -0.2285 -0.3496
C       0.1802  -0.0483 -0.1673
C       1.0913  -0.3963 -1.1435
C       0.7170  0.4782  0.9898
C       -2.0257 1.0574  -0.2860
C       2.8249  0.2781  0.1631
C       -2.6067 2.1071  -0.2351
H       -1.4727 -0.6135 -1.3633
H       -2.8839 -1.1099 0.5791
H       0.7760  -0.8197 -2.0919
H       0.0918  0.7838  1.8231
H       3.8916  0.4098  0.2963
H       -0.5111 -2.6394 0.4215
H       -2.0019 -3.1594 0.7998
H       -3.1217 3.0381  -0.1897

--Link1--
%chk=JID_1832.chk
%mem=8GB
%nprocshared=4
# B3LYP/6-311++G(d,p) empiricaldispersion=gd3bj scf=xqc pop=npa geom=check

CID_102924226_JID_1832_Energie_neutraal

0 1

--Link1--
%chk=JID_1832.chk
%mem=8GB
%nprocshared=4
# B3LYP/6-311++G(d,p) empiricaldispersion=gd3bj scf=xqc pop=npa geom=check

CID_102924226_JID_1832_Energie_kation

1 2

--Link1--
%chk=JID_1832.chk
%mem=8GB
%nprocshared=4
# B3LYP/6-311++G(d,p) empiricaldispersion=gd3bj scf=xqc pop=npa geom=check

CID_102924226_JID_1832_Energie_anion

-1 2
