%chk=JID_9930.chk
%mem=8GB
%nprocshared=4
# opt freq B3LYP/6-31G(d) empiricaldispersion=gd3bj scf=xqc

CID_49754055_JID_9930_neutraal

0 1
C          0.93675        0.05451        0.05502
C         -0.36343        0.47890        0.74234
C         -0.19505        1.86338        1.36890
C         -1.53717        0.48020       -0.25278
C         -1.99206       -0.93381       -0.58526
O         -2.18337       -1.73075        0.33910
N         -2.23423       -1.28706       -1.90451
C         -2.10215       -0.39992       -3.06240
C         -0.68319       -0.29832       -3.54871
C          0.02295       -1.30626       -4.18117
S          1.61377       -0.85419       -4.61279
C          1.37750        0.72812       -4.02219
C          0.11406        0.89853       -3.50134
C         -2.74674       -2.63923       -2.14812
C         -1.64573       -3.62888       -2.28541
C         -0.60992       -4.02595       -1.46326
C          0.08770       -5.04312       -2.15584
C         -0.56986       -5.21217       -3.35089
O         -1.62372       -4.35983       -3.44003
H          1.23298        0.77339       -0.71510
H          0.83674       -0.92958       -0.41375
H          1.75292       -0.00705        0.78296
H         -0.56467       -0.23125        1.55395
H          0.00714        2.62394        0.60726
H         -1.10074        2.15670        1.91026
H          0.63552        1.86821        2.08283
H         -2.40843        0.97411        0.19642
H         -1.27017        1.06744       -1.12741
H         -2.74283       -0.75833       -3.87666
H         -2.48611        0.58973       -2.79217
H         -0.31268       -2.30632       -4.41312
H          2.17163        1.45905       -4.08926
H         -0.21961        1.84438       -3.09150
H         -3.39356       -2.94382       -1.31672
H         -3.38203       -2.63140       -3.04079
H         -0.39502       -3.62697       -0.48071
H          0.95760       -5.59017       -1.82132
H         -0.42182       -5.86346       -4.20086

--Link1--
%chk=JID_9930.chk
%mem=8GB
%nprocshared=4
# B3LYP/6-311++G(d,p) empiricaldispersion=gd3bj scf=xqc pop=npa geom=check

CID_49754055_JID_9930_Energie_neutraal

0 1

--Link1--
%chk=JID_9930.chk
%mem=8GB
%nprocshared=4
# B3LYP/6-311++G(d,p) empiricaldispersion=gd3bj scf=xqc pop=npa geom=check

CID_49754055_JID_9930_Energie_kation

1 2

--Link1--
%chk=JID_9930.chk
%mem=8GB
%nprocshared=4
# B3LYP/6-311++G(d,p) empiricaldispersion=gd3bj scf=xqc pop=npa geom=check

CID_49754055_JID_9930_Energie_anion

-1 2
