%chk=JID_9547.chk
%mem=8GB
%nprocshared=4
# opt freq B3LYP/6-31G(d) empiricaldispersion=gd3bj scf=xqc

CID_107555862_JID_9547_neutraal

0 1
C          1.09445       -0.01051        0.03111
C          0.78944        1.38679       -0.48168
C          1.09540        1.58240       -1.96775
C          0.38762        0.62965       -2.93471
C         -1.14146        0.50075       -2.83640
N         -1.89827        1.58157       -3.47456
C         -3.15895        1.12751       -4.05154
C         -2.04051        2.83234       -2.71532
C         -2.65477        2.78357       -1.33548
C         -3.41721        1.82636       -0.69270
C         -3.74169        2.18289        0.64845
C         -3.24421        3.42044        0.99875
S         -2.42240        4.15186       -0.31108
C         -3.36354        4.12496        2.32010
N         -2.07792        4.12280        3.01562
C         -2.16392        4.65959        4.37169
C         -2.69631        3.66984        5.42954
C         -1.78633        2.44960        5.59669
C         -2.84433        4.38595        6.77519
H          0.44057       -0.75873       -0.42624
H          0.94123       -0.05462        1.11423
H          2.13339       -0.28634       -0.17515
H         -0.25605        1.62293       -0.27110
H          1.38788        2.10670        0.08979
H          0.88456        2.62007       -2.24088
H          2.17703        1.46178       -2.11482
H          0.65937        0.90903       -3.96123
H          0.81325       -0.37243       -2.79029
H         -1.37335       -0.43195       -3.37030
H         -1.45473        0.31122       -1.80663
H         -3.85047        0.71781       -3.31161
H         -3.66545        1.94197       -4.58172
H         -2.97452        0.35030       -4.80225
H         -1.05297        3.29835       -2.64733
H         -2.62559        3.54341       -3.31575
H         -3.70836        0.88564       -1.13922
H         -4.30687        1.55350        1.32505
H         -3.70643        5.15419        2.15847
H         -4.13010        3.61666        2.91663
H         -1.69157        3.18194        3.01702
H         -1.15292        4.97156        4.66233
H         -2.76719        5.57644        4.37141
H         -3.69152        3.31678        5.13427
H         -0.76137        2.74986        5.84002
H         -2.14800        1.80355        6.40402
H         -1.75709        1.84278        4.68675
H         -3.53139        5.23450        6.69017
H         -3.24665        3.70763        7.53521
H         -1.88054        4.76330        7.13369

--Link1--
%chk=JID_9547.chk
%mem=8GB
%nprocshared=4
# B3LYP/6-311++G(d,p) empiricaldispersion=gd3bj scf=xqc pop=npa geom=check

CID_107555862_JID_9547_Energie_neutraal

0 1

--Link1--
%chk=JID_9547.chk
%mem=8GB
%nprocshared=4
# B3LYP/6-311++G(d,p) empiricaldispersion=gd3bj scf=xqc pop=npa geom=check

CID_107555862_JID_9547_Energie_kation

1 2

--Link1--
%chk=JID_9547.chk
%mem=8GB
%nprocshared=4
# B3LYP/6-311++G(d,p) empiricaldispersion=gd3bj scf=xqc pop=npa geom=check

CID_107555862_JID_9547_Energie_anion

-1 2
