%chk=JID_3432.chk
%mem=8GB
%nprocshared=4
# opt freq B3LYP/6-31G(d) empiricaldispersion=gd3bj scf=xqc

CID_67934568_JID_3432_neutraal

0 1
C          0.93536        0.07240       -0.02409
C          0.15198       -1.10128        0.46067
C         -0.91596       -0.88534        1.48304
C         -1.31962       -1.33636        0.09210
C         -1.70627       -2.80691       -0.13167
N         -1.30713       -3.22568       -1.49234
C         -1.91802       -2.32972       -2.49990
C         -1.57351       -0.84346       -2.26984
N         -1.94237       -0.45490       -0.89895
C         -3.19876        0.13888       -0.74247
O         -3.85829        0.54272       -1.70819
C         -3.79174        0.27938        0.66195
N         -4.41135       -0.97768        1.10482
H          0.31653        0.96601       -0.15353
H          1.40950       -0.15962       -0.98248
H          1.72739        0.31320        0.69227
H          0.79217       -1.96808        0.58806
H         -1.07394        0.13624        1.80365
H         -1.00388       -1.60158        2.29319
H         -2.78420       -2.94778       -0.00016
H         -1.20923       -3.45904        0.59552
H         -0.29356       -3.13701       -1.55618
H         -1.56999       -2.63259       -3.49332
H         -3.00582       -2.47002       -2.48676
H         -0.49734       -0.68130       -2.39300
H         -2.08129       -0.22035       -3.01276
H         -3.04947        0.63423        1.37432
H         -4.56325        1.05736        0.61694
H         -4.92678       -0.80151        1.96583
H         -5.11315       -1.24499        0.41160

--Link1--
%chk=JID_3432.chk
%mem=8GB
%nprocshared=4
# B3LYP/6-311++G(d,p) empiricaldispersion=gd3bj scf=xqc pop=npa geom=check

CID_67934568_JID_3432_Energie_neutraal

0 1

--Link1--
%chk=JID_3432.chk
%mem=8GB
%nprocshared=4
# B3LYP/6-311++G(d,p) empiricaldispersion=gd3bj scf=xqc pop=npa geom=check

CID_67934568_JID_3432_Energie_kation

1 2

--Link1--
%chk=JID_3432.chk
%mem=8GB
%nprocshared=4
# B3LYP/6-311++G(d,p) empiricaldispersion=gd3bj scf=xqc pop=npa geom=check

CID_67934568_JID_3432_Energie_anion

-1 2
