%chk=JID_9269.chk
%mem=8GB
%nprocshared=4
# opt freq B3LYP/6-31G(d) empiricaldispersion=gd3bj scf=xqc

CID_65488390_JID_9269_neutraal

0 1
C          1.03001        0.00092       -0.09539
C         -0.24150        0.40088        0.64165
C          0.05786        1.08656        1.97045
C         -0.06526        2.60052        1.93769
O         -0.83625        3.17979        2.71094
C          0.79100        3.38457        0.95632
N          2.22726        3.29886        1.27787
C          3.00961        3.68552        0.09634
C          2.68724        4.07773        2.46330
C          1.95716        5.41040        2.70182
C          2.69532        3.25041        3.78076
C          3.55080        1.99768        3.80814
C          2.97860        0.79435        4.25780
C          3.71328       -0.39434        4.28267
C          5.04245       -0.40033        3.87211
C          5.64235        0.78847        3.46581
C          4.91108        1.98145        3.46867
O          5.56333        3.12570        3.09032
C          6.22286        3.70826        4.21482
H          1.64021        0.86802       -0.35593
H          0.77639       -0.52077       -1.02382
H          1.63905       -0.67557        0.51324
H         -0.86521        1.03046       -0.00248
H         -0.81156       -0.51525        0.83876
H         -0.66559        0.73139        2.71528
H          1.04793        0.81975        2.34060
H          0.58759        2.95781       -0.03291
H          0.42820        4.41649        0.89700
H          2.85872        4.73727       -0.17110
H          4.07916        3.51649        0.26522
H          2.74116        3.06950       -0.76925
H          3.72768        4.36923        2.28299
H          0.92335        5.26324        3.02832
H          2.46562        5.98474        3.48473
H          1.95616        6.03030        1.79914
H          3.04688        3.88930        4.60214
H          1.66217        2.99237        4.04300
H          1.94023        0.77085        4.58289
H          3.24224       -1.31557        4.61566
H          5.61199       -1.32536        3.87580
H          6.68228        0.79099        3.15210
H          5.49670        4.06098        4.95471
H          6.92925        3.01056        4.67786
H          6.78900        4.57356        3.85745

--Link1--
%chk=JID_9269.chk
%mem=8GB
%nprocshared=4
# B3LYP/6-311++G(d,p) empiricaldispersion=gd3bj scf=xqc pop=npa geom=check

CID_65488390_JID_9269_Energie_neutraal

0 1

--Link1--
%chk=JID_9269.chk
%mem=8GB
%nprocshared=4
# B3LYP/6-311++G(d,p) empiricaldispersion=gd3bj scf=xqc pop=npa geom=check

CID_65488390_JID_9269_Energie_kation

1 2

--Link1--
%chk=JID_9269.chk
%mem=8GB
%nprocshared=4
# B3LYP/6-311++G(d,p) empiricaldispersion=gd3bj scf=xqc pop=npa geom=check

CID_65488390_JID_9269_Energie_anion

-1 2
