%chk=JID_2367.chk
%mem=8GB
%nprocshared=4
# opt freq B3LYP/6-31G(d) empiricaldispersion=gd3bj scf=xqc

CID_116804489_JID_2367_neutraal

0 1
C          0.90549        0.00191        0.03262
C          0.03224       -1.23226       -0.12445
N          0.78784       -2.46764       -0.21619
C          1.73692       -2.91963        0.66023
C          2.14340       -4.13632        0.17037
C          1.34189       -4.36257       -0.96148
N          0.52078       -3.33739       -1.21193
O          3.04630       -4.99635        0.68908
C          4.19026       -4.38354        1.28908
C          5.23230       -4.10519        0.24724
C          5.29311       -2.77892       -0.46806
C          6.35478       -3.13973        0.53360
H          1.45194       -0.01296        0.98114
H          0.28860        0.90583        0.01596
H          1.63944        0.07174       -0.77718
H         -0.64970       -1.33810        0.72581
H         -0.57084       -1.14040       -1.03506
H          2.01903       -2.34801        1.53114
H          1.32682       -5.22617       -1.61231
H          3.94058       -3.50157        1.88997
H          4.60159       -5.11864        1.99038
H          5.47316       -4.99655       -0.32206
H          5.55697       -2.78804       -1.51993
H          4.58227       -2.00611       -0.20055
H          6.35982       -2.60714        1.47773
H          7.34229       -3.38529        0.15892

--Link1--
%chk=JID_2367.chk
%mem=8GB
%nprocshared=4
# B3LYP/6-311++G(d,p) empiricaldispersion=gd3bj scf=xqc pop=npa geom=check

CID_116804489_JID_2367_Energie_neutraal

0 1

--Link1--
%chk=JID_2367.chk
%mem=8GB
%nprocshared=4
# B3LYP/6-311++G(d,p) empiricaldispersion=gd3bj scf=xqc pop=npa geom=check

CID_116804489_JID_2367_Energie_kation

1 2

--Link1--
%chk=JID_2367.chk
%mem=8GB
%nprocshared=4
# B3LYP/6-311++G(d,p) empiricaldispersion=gd3bj scf=xqc pop=npa geom=check

CID_116804489_JID_2367_Energie_anion

-1 2
