%chk=JID_4157.chk
%mem=8GB
%nprocshared=4
# opt freq B3LYP/6-31G(d) empiricaldispersion=gd3bj scf=xqc

CID_82591067_JID_4157_neutraal

0 1
C          1.00108        0.06691        0.07431
N          0.73683       -1.34746        0.19812
C          1.48689       -2.37751       -0.27763
C          0.83812       -3.54110        0.09383
C          1.38123       -4.84211       -0.26088
O          0.82297       -5.90550       -0.01522
C          2.76391       -4.82500       -0.91623
C          2.97890       -3.59246       -1.80629
C          2.75611       -2.27751       -1.04370
C         -0.32128       -3.11278        0.79189
N         -0.37378       -1.75707        0.83497
C         -1.38296       -3.90951        1.42936
O         -1.40640       -5.12997        1.52497
N         -2.39564       -3.15214        1.95587
H          0.48283        0.60165        0.87468
H          0.63533        0.39570       -0.90126
H          2.07681        0.23791        0.16014
H          2.87016       -5.73132       -1.52249
H          3.51545       -4.85619       -0.11910
H          3.99002       -3.60753       -2.22821
H          2.27763       -3.64008       -2.65015
H          3.58679       -2.10468       -0.34974
H          2.72932       -1.44315       -1.75263
H         -2.31661       -2.14326        1.90793
H         -3.14425       -3.60441        2.45526

--Link1--
%chk=JID_4157.chk
%mem=8GB
%nprocshared=4
# B3LYP/6-311++G(d,p) empiricaldispersion=gd3bj scf=xqc pop=npa geom=check

CID_82591067_JID_4157_Energie_neutraal

0 1

--Link1--
%chk=JID_4157.chk
%mem=8GB
%nprocshared=4
# B3LYP/6-311++G(d,p) empiricaldispersion=gd3bj scf=xqc pop=npa geom=check

CID_82591067_JID_4157_Energie_kation

1 2

--Link1--
%chk=JID_4157.chk
%mem=8GB
%nprocshared=4
# B3LYP/6-311++G(d,p) empiricaldispersion=gd3bj scf=xqc pop=npa geom=check

CID_82591067_JID_4157_Energie_anion

-1 2
