%chk=JID_10859.chk
%mem=8GB
%nprocshared=4
# opt freq B3LYP/6-31G(d) empiricaldispersion=gd3bj scf=xqc

CID_62083146_JID_10859_neutraal

0 1
C          1.34400       -0.22500        0.03600
C          0.98769        1.08968       -0.25244
C         -0.35628        1.46358       -0.25084
C         -1.36250        0.52515        0.03614
C         -0.98681       -0.79768        0.32064
C          0.35880       -1.16943        0.31747
C         -2.81707        0.93887        0.11748
C         -3.13307        1.63891        1.39741
N         -3.31690        2.92334        1.62018
C         -3.50242        2.95949        2.98835
N         -3.49869        1.74665        3.56859
O         -3.25120        0.87104        2.51521
C         -3.66609        4.21270        3.71664
C         -3.68642        4.23415        5.12125
C         -3.84757        5.43161        5.82590
C         -3.88854        6.63045        5.11109
C         -3.87364        6.62959        3.71571
C         -3.77088        5.42458        3.02112
N         -3.72853        5.44838        7.22103
O         -3.12652        1.81644       -0.97773
H          2.39138       -0.51563        0.03714
H          1.75575        1.82596       -0.47448
H         -0.61758        2.49740       -0.46951
H         -1.73830       -1.54854        0.55593
H          0.63999       -2.19562        0.54031
H         -3.46754        0.06455        0.00370
H         -3.56671        3.30581        5.67603
H         -3.92990        7.58013        5.63813
H         -3.92263        7.56896        3.17127
H         -3.74900        5.44083        1.93341
H         -4.00439        4.57884        7.66739
H         -4.15483        6.25804        7.66054
H         -3.43723        2.65502       -0.58719

--Link1--
%chk=JID_10859.chk
%mem=8GB
%nprocshared=4
# B3LYP/6-311++G(d,p) empiricaldispersion=gd3bj scf=xqc pop=npa geom=check

CID_62083146_JID_10859_Energie_neutraal

0 1

--Link1--
%chk=JID_10859.chk
%mem=8GB
%nprocshared=4
# B3LYP/6-311++G(d,p) empiricaldispersion=gd3bj scf=xqc pop=npa geom=check

CID_62083146_JID_10859_Energie_kation

1 2

--Link1--
%chk=JID_10859.chk
%mem=8GB
%nprocshared=4
# B3LYP/6-311++G(d,p) empiricaldispersion=gd3bj scf=xqc pop=npa geom=check

CID_62083146_JID_10859_Energie_anion

-1 2
