%chk=JID_6632.chk
%mem=8GB
%nprocshared=4
# opt freq B3LYP/6-31G(d) empiricaldispersion=gd3bj scf=xqc

CID_249272_JID_6632_neutraal

0 1
C          1.09054       -0.03735        0.02021
C          0.65434       -1.51139        0.18004
C          1.28243       -2.02610        1.49417
C         -0.88311       -1.52778        0.31242
C          1.07025       -2.41265       -0.99567
C          0.83064       -3.79848       -0.94591
C          1.18928       -4.64386       -2.00188
C          1.79021       -4.13018       -3.15538
C          2.03217       -2.75375       -3.21787
C          1.67682       -1.91076       -2.15737
C          2.19083       -5.05788       -4.27558
C          3.64357       -5.47981       -4.19825
C          3.94435       -5.83839       -5.63186
C          3.03837       -4.90824       -6.38026
O          3.12877       -4.63829       -7.56644
O          2.06225       -4.43040       -5.55608
H          0.79246        0.55952        0.89062
H          0.62943        0.42880       -0.85826
H          2.17885        0.05172       -0.07710
H          1.03515       -1.36703        2.33480
H          0.92718       -3.02695        1.76195
H          2.37510       -2.07293        1.41709
H         -1.36269       -1.18088       -0.61068
H         -1.26765       -2.53171        0.52435
H         -1.21706       -0.87490        1.12725
H          0.35068       -4.24426       -0.07715
H          0.98503       -5.70870       -1.91217
H          2.49654       -2.31683       -4.10035
H          1.88609       -0.85103       -2.27534
H          1.52560       -5.93130       -4.28526
H          3.81617       -6.30414       -3.49990
H          4.28721       -4.64490       -3.89176
H          3.66563       -6.87091       -5.86052
H          4.99180       -5.65496       -5.88138

--Link1--
%chk=JID_6632.chk
%mem=8GB
%nprocshared=4
# B3LYP/6-311++G(d,p) empiricaldispersion=gd3bj scf=xqc pop=npa geom=check

CID_249272_JID_6632_Energie_neutraal

0 1

--Link1--
%chk=JID_6632.chk
%mem=8GB
%nprocshared=4
# B3LYP/6-311++G(d,p) empiricaldispersion=gd3bj scf=xqc pop=npa geom=check

CID_249272_JID_6632_Energie_kation

1 2

--Link1--
%chk=JID_6632.chk
%mem=8GB
%nprocshared=4
# B3LYP/6-311++G(d,p) empiricaldispersion=gd3bj scf=xqc pop=npa geom=check

CID_249272_JID_6632_Energie_anion

-1 2
