%chk=JID_8525.chk
%mem=8GB
%nprocshared=4
# opt freq B3LYP/6-31G(d) empiricaldispersion=gd3bj scf=xqc

CID_22064570_JID_8525_neutraal

0 1
C         -1.76400        0.00700       -0.67600
C         -1.42624       -1.24366        0.13486
C         -0.10453       -1.18287        0.91830
C         -0.04699        0.09480        1.75479
C         -0.08056        1.33075        0.82744
C         -1.41626        1.31927        0.02849
C          1.15262        1.19604       -0.11762
C          1.33055       -0.16447       -0.79399
N          1.09492       -1.30514        0.08316
C         -0.04191        2.63993        1.65833
C          0.83044        3.70131        1.35596
C          0.85267        4.87192        2.12172
C         -0.01402        5.02123        3.19947
C         -0.91904        4.00481        3.50662
C         -0.92297        2.82357        2.74705
C         -1.84597        4.21063        4.65141
O         -1.59136        4.99849        5.55330
N         -3.02589        3.51854        4.63952
H         -2.83725        0.00078       -0.90631
H         -1.27888       -0.03018       -1.65468
H         -2.23717       -1.40140        0.85912
H         -1.43922       -2.12155       -0.52286
H         -0.09661       -2.04128        1.60171
H          0.86002        0.10465        2.37520
H         -0.89148        0.08458        2.45402
H         -1.42168        2.13358       -0.70818
H         -2.25081        1.53703        0.70911
H          1.12025        1.96374       -0.90125
H          2.06603        1.37974        0.46644
H          0.71444       -0.24349       -1.69169
H          2.35837       -0.23176       -1.17264
H          1.90346       -1.40927        0.69877
H          1.52265        3.64897        0.51975
H          1.54894        5.66961        1.87316
H          0.00924        5.93390        3.79122
H         -1.61476        2.03163        3.01748
H         -3.38617        3.08014        3.80480
H         -3.69092        3.76443        5.36198

--Link1--
%chk=JID_8525.chk
%mem=8GB
%nprocshared=4
# B3LYP/6-311++G(d,p) empiricaldispersion=gd3bj scf=xqc pop=npa geom=check

CID_22064570_JID_8525_Energie_neutraal

0 1

--Link1--
%chk=JID_8525.chk
%mem=8GB
%nprocshared=4
# B3LYP/6-311++G(d,p) empiricaldispersion=gd3bj scf=xqc pop=npa geom=check

CID_22064570_JID_8525_Energie_kation

1 2

--Link1--
%chk=JID_8525.chk
%mem=8GB
%nprocshared=4
# B3LYP/6-311++G(d,p) empiricaldispersion=gd3bj scf=xqc pop=npa geom=check

CID_22064570_JID_8525_Energie_anion

-1 2
