%chk=JID_948.chk
%mem=8GB
%nprocshared=4
# opt freq B3LYP/6-31G(d) empiricaldispersion=gd3bj scf=xqc

CID_23590741_JID_948_neutraal

0 1
C          0.93149       -0.07045        0.01853
C          0.44482        0.49361       -1.28110
O         -0.14470       -0.14983       -2.13711
O          0.75568        1.81631       -1.36220
C          0.37722        2.45326       -2.59551
C          0.99088        3.85448       -2.61702
C         -0.18194        4.78355       -2.34840
N         -1.27373        4.10623       -3.04463
C         -1.13941        2.69061       -2.67687
C         -2.57983        4.64930       -2.70350
H          0.65554       -1.12698        0.08099
H          0.46380        0.46046        0.85149
H          2.01998        0.01019        0.07258
H          0.75898        1.87511       -3.44632
H          1.39688        4.06107       -3.61531
H          1.79182        3.98997       -1.88351
H          0.00174        5.78671       -2.74570
H         -0.36754        4.85794       -1.26927
H         -1.61742        2.47124       -1.71354
H         -1.59604        2.05255       -3.44058
H         -3.36850        4.11217       -3.24153
H         -2.79238        4.58778       -1.63019
H         -2.64569        5.70010       -3.00600

--Link1--
%chk=JID_948.chk
%mem=8GB
%nprocshared=4
# B3LYP/6-311++G(d,p) empiricaldispersion=gd3bj scf=xqc pop=npa geom=check

CID_23590741_JID_948_Energie_neutraal

0 1

--Link1--
%chk=JID_948.chk
%mem=8GB
%nprocshared=4
# B3LYP/6-311++G(d,p) empiricaldispersion=gd3bj scf=xqc pop=npa geom=check

CID_23590741_JID_948_Energie_kation

1 2

--Link1--
%chk=JID_948.chk
%mem=8GB
%nprocshared=4
# B3LYP/6-311++G(d,p) empiricaldispersion=gd3bj scf=xqc pop=npa geom=check

CID_23590741_JID_948_Energie_anion

-1 2
