%chk=JID_8784.chk
%mem=8GB
%nprocshared=4
# opt freq B3LYP/6-31G(d) empiricaldispersion=gd3bj scf=xqc

CID_62402641_JID_8784_neutraal

0 1
C          1.03280       -0.06833       -0.06523
C          0.58560        1.21630        0.52398
N          1.03434        2.37372        0.02615
N          0.46168        3.32841        0.80013
C          0.63366        4.70465        0.71878
C          0.01878        5.52256        1.59046
C         -0.86643        4.82667        2.57485
N         -1.05867        3.54470        2.67325
C         -0.37115        2.77308        1.77608
C         -0.29920        1.41140        1.60380
C          0.13209        7.01050        1.63435
N          1.32962        7.39324        2.37951
C          1.47416        8.84760        2.49411
C          0.53615        9.44958        3.48268
C          0.20207        9.14886        4.78877
C         -0.74473       10.11997        5.19382
C         -0.92303       10.95380        4.11562
O         -0.15599       10.55082        3.07053
H          0.69400       -0.15229       -1.10281
H          0.63073       -0.92001        0.49281
H          2.12515       -0.13985       -0.04979
H          1.30419        5.05145       -0.05559
H         -1.39953        5.48600        3.28096
H         -0.81387        0.66646        2.19246
H          0.19366        7.39696        0.60926
H         -0.77434        7.43705        2.07983
H          1.31240        6.98812        3.31285
H          2.49728        9.05891        2.82615
H          1.36849        9.32217        1.51113
H          0.59754        8.33325        5.37792
H         -1.23085       10.20810        6.15531
H         -1.52632       11.83387        3.94077

--Link1--
%chk=JID_8784.chk
%mem=8GB
%nprocshared=4
# B3LYP/6-311++G(d,p) empiricaldispersion=gd3bj scf=xqc pop=npa geom=check

CID_62402641_JID_8784_Energie_neutraal

0 1

--Link1--
%chk=JID_8784.chk
%mem=8GB
%nprocshared=4
# B3LYP/6-311++G(d,p) empiricaldispersion=gd3bj scf=xqc pop=npa geom=check

CID_62402641_JID_8784_Energie_kation

1 2

--Link1--
%chk=JID_8784.chk
%mem=8GB
%nprocshared=4
# B3LYP/6-311++G(d,p) empiricaldispersion=gd3bj scf=xqc pop=npa geom=check

CID_62402641_JID_8784_Energie_anion

-1 2
