%chk=JID_4671.chk
%mem=8GB
%nprocshared=4
# opt freq B3LYP/6-31G(d) empiricaldispersion=gd3bj scf=xqc

CID_18416662_JID_4671_neutraal

0 1
C         -2.38400        0.00700       -0.11600
N         -0.92435        0.01928       -0.02505
C         -0.32285       -1.00415       -1.05582
C          1.32357       -1.06164       -1.66420
C          2.49709        0.34452       -1.15173
C          1.42720        1.90421       -0.00143
C         -0.43138        1.50203        0.17048
C          2.19819        3.08884       -3.01722
N          2.21489        2.24143       -1.85311
C          3.52285        2.22157       -0.62094
C          3.16380        0.95838        0.75407
C          1.42581        0.10812        0.30028
C          0.87926        1.09327       -1.54901
O         -0.02244        1.07456       -2.38222
H         -2.73054        0.45719       -1.05222
H         -2.76778       -1.01729       -0.05822
H         -2.82889        0.55734        0.72004
H         -0.46396       -1.99030       -0.59144
H         -0.96049       -1.02328       -1.95182
H          1.29382       -1.05573       -2.76358
H          1.79528       -2.00511       -1.35493
H          2.98128        0.52935       -2.15194
H          3.31504       -0.29336       -0.74348
H          1.33880        2.97538       -0.33552
H          1.62245        2.12726        1.07388
H         -0.96887        2.19379       -0.49653
H         -0.67877        1.80733        1.19761
H          2.21442        4.12954       -2.68638
H          3.08836        2.87594       -3.61289
H          1.30059        2.90108       -3.60873
H          3.57023        3.22884       -0.19241
H          4.44504        1.94417       -1.14365
H          3.13804        1.45022        1.73952
H          3.97704        0.21946        0.83399
H          0.88567        0.25473        1.26150
H          1.66943       -0.97046        0.37397

--Link1--
%chk=JID_4671.chk
%mem=8GB
%nprocshared=4
# B3LYP/6-311++G(d,p) empiricaldispersion=gd3bj scf=xqc pop=npa geom=check

CID_18416662_JID_4671_Energie_neutraal

0 1

--Link1--
%chk=JID_4671.chk
%mem=8GB
%nprocshared=4
# B3LYP/6-311++G(d,p) empiricaldispersion=gd3bj scf=xqc pop=npa geom=check

CID_18416662_JID_4671_Energie_kation

1 2

--Link1--
%chk=JID_4671.chk
%mem=8GB
%nprocshared=4
# B3LYP/6-311++G(d,p) empiricaldispersion=gd3bj scf=xqc pop=npa geom=check

CID_18416662_JID_4671_Energie_anion

-1 2
