%chk=JID_5852.chk
%mem=8GB
%nprocshared=4
# opt freq B3LYP/6-31G(d) empiricaldispersion=gd3bj scf=xqc

CID_66239726_JID_5852_neutraal

0 1
C          0.94873       -0.00934       -0.08535
C         -0.02717        1.04149       -0.59093
C         -0.08231        1.13455       -2.11802
C         -0.69707       -0.08256       -2.82344
N         -2.11391       -0.26442       -2.51852
C         -2.47144       -1.25941       -1.59389
O         -1.69640       -2.07195       -1.09748
C         -3.90849       -1.19083       -1.18461
C         -4.56463       -2.40657       -0.59056
O         -5.96725       -2.29238       -0.93693
C         -6.10435       -1.24342       -1.92176
C         -4.70316       -1.01339       -2.44199
N         -4.35761        0.25260       -3.00998
C         -3.02694        0.54406       -3.20661
O         -2.72005        1.45574       -3.96882
H          0.65390       -1.01780       -0.38514
H          0.99102        0.01367        1.00835
H          1.95786        0.17960       -0.46528
H         -1.02416        0.85039       -0.17993
H          0.28820        2.01621       -0.19896
H         -0.64927        2.03480       -2.38366
H          0.93376        1.28515       -2.50336
H         -0.60035        0.06085       -3.90694
H         -0.13426       -0.98928       -2.57985
H         -4.02774       -0.33544       -0.50417
H         -4.46744       -2.44933        0.49814
H         -4.18559       -3.34467       -1.01033
H         -6.51612       -0.35848       -1.42397
H         -6.80072       -1.56132       -2.70277
H         -4.45413       -1.78789       -3.18227
H         -4.97846        0.72749       -3.65661

--Link1--
%chk=JID_5852.chk
%mem=8GB
%nprocshared=4
# B3LYP/6-311++G(d,p) empiricaldispersion=gd3bj scf=xqc pop=npa geom=check

CID_66239726_JID_5852_Energie_neutraal

0 1

--Link1--
%chk=JID_5852.chk
%mem=8GB
%nprocshared=4
# B3LYP/6-311++G(d,p) empiricaldispersion=gd3bj scf=xqc pop=npa geom=check

CID_66239726_JID_5852_Energie_kation

1 2

--Link1--
%chk=JID_5852.chk
%mem=8GB
%nprocshared=4
# B3LYP/6-311++G(d,p) empiricaldispersion=gd3bj scf=xqc pop=npa geom=check

CID_66239726_JID_5852_Energie_anion

-1 2
