%chk=JID_6049.chk
%mem=8GB
%nprocshared=4
# opt freq B3LYP/6-31G(d) empiricaldispersion=gd3bj scf=xqc

CID_103120675_JID_6049_neutraal

0 1
C          0.93937        0.07788       -0.01607
N         -0.12333        0.67685       -0.80964
C         -1.46006        0.44941       -0.24857
C         -1.74470        1.18205        1.07724
N         -1.40501        2.60002        1.01971
C         -2.03856        3.56901        0.28208
O         -1.36633        4.49686       -0.16208
C         -3.46171        3.47623        0.04275
C         -4.13619        3.97948       -1.05103
C         -3.72721        4.67019       -2.24271
N         -4.58411        5.03993       -3.15516
C         -5.91837        4.75392       -2.93978
C         -6.37810        4.11917       -1.85091
N         -5.47699        3.72081       -0.87943
N         -5.71037        3.08010        0.28983
C         -4.50326        2.97134        0.85011
H          0.78182       -0.99792        0.11107
H          1.02929        0.54638        0.96848
H          1.89489        0.20984       -0.53341
H          0.04219        1.67770       -0.92072
H         -2.18292        0.79279       -0.99829
H         -1.64141       -0.62463       -0.12337
H         -2.79359        1.05151        1.34640
H         -1.14729        0.75114        1.88759
H         -0.41601        2.80508        1.09536
H         -2.65976        4.89467       -2.40113
H         -6.60419        5.08033       -3.71754
H         -7.42041        3.89574       -1.67437
H         -4.43667        2.53392        1.83835

--Link1--
%chk=JID_6049.chk
%mem=8GB
%nprocshared=4
# B3LYP/6-311++G(d,p) empiricaldispersion=gd3bj scf=xqc pop=npa geom=check

CID_103120675_JID_6049_Energie_neutraal

0 1

--Link1--
%chk=JID_6049.chk
%mem=8GB
%nprocshared=4
# B3LYP/6-311++G(d,p) empiricaldispersion=gd3bj scf=xqc pop=npa geom=check

CID_103120675_JID_6049_Energie_kation

1 2

--Link1--
%chk=JID_6049.chk
%mem=8GB
%nprocshared=4
# B3LYP/6-311++G(d,p) empiricaldispersion=gd3bj scf=xqc pop=npa geom=check

CID_103120675_JID_6049_Energie_anion

-1 2
