%chk=JID_3088.chk
%mem=8GB
%nprocshared=4
# opt freq B3LYP/6-31G(d) empiricaldispersion=gd3bj scf=xqc

CID_103881092_JID_3088_neutraal

0 1
C          0.92981        0.04488        0.05531
C          0.32748        0.29860        1.43043
C          1.28751        1.04366        2.35880
O          0.84896        2.38168        2.63676
C          1.07873        3.28957        1.56771
C          2.54280        3.67051        1.32387
O          3.16629        3.22491        0.35722
N          3.17235        4.52730        2.18807
C          2.68570        5.10214        3.41802
C          2.86381        6.60733        3.55995
C          1.49152        6.03829        3.41669
C          2.99842        4.31410        4.68769
O          2.75617        2.92687        4.51293
H          1.17464        0.97845       -0.45815
H          0.22140       -0.50796       -0.56984
H          1.84494       -0.55103        0.13447
H         -0.62038        0.83800        1.32657
H          0.09863       -0.67923        1.87123
H          1.28921        0.53221        3.32801
H          2.32291        1.03933        2.00097
H          0.65589        2.90450        0.63424
H          0.50798        4.19599        1.77839
H          4.15509        4.65249        1.97049
H          3.14490        7.01398        4.52538
H          3.26959        7.16333        2.72151
H          0.97550        6.25572        2.48873
H          0.83993        6.04628        4.28363
H          4.05529        4.43680        4.94665
H          2.39991        4.66122        5.53657
H          1.87609        2.84335        4.09400

--Link1--
%chk=JID_3088.chk
%mem=8GB
%nprocshared=4
# B3LYP/6-311++G(d,p) empiricaldispersion=gd3bj scf=xqc pop=npa geom=check

CID_103881092_JID_3088_Energie_neutraal

0 1

--Link1--
%chk=JID_3088.chk
%mem=8GB
%nprocshared=4
# B3LYP/6-311++G(d,p) empiricaldispersion=gd3bj scf=xqc pop=npa geom=check

CID_103881092_JID_3088_Energie_kation

1 2

--Link1--
%chk=JID_3088.chk
%mem=8GB
%nprocshared=4
# B3LYP/6-311++G(d,p) empiricaldispersion=gd3bj scf=xqc pop=npa geom=check

CID_103881092_JID_3088_Energie_anion

-1 2
