%chk=JID_5640.chk
%mem=8GB
%nprocshared=4
# opt freq B3LYP/6-31G(d) empiricaldispersion=gd3bj scf=xqc

CID_72780132_JID_5640_neutraal

0 1
C          2.49200        0.00400       -0.01400
C          0.99760        0.14385       -0.01274
C          0.18018       -0.98005        0.17880
C         -1.21835       -0.86825        0.18933
C         -1.82396        0.39295        0.03066
C         -0.99711        1.51706       -0.15463
C          0.39316        1.39361       -0.15439
O          1.17919        2.49568       -0.36799
C          1.18372        3.34526        0.77925
C         -3.33611        0.61100        0.04217
C         -4.02802       -0.10491       -1.12150
C         -3.98692        0.24665        1.38817
O         -3.49658        1.08596        2.43375
O         -2.05707       -1.93370        0.38329
C         -1.53781       -3.22392        0.08170
H          2.79509       -1.04564       -0.08970
H          2.92822        0.52840       -0.87048
H          2.90860        0.41346        0.91161
H          0.66006       -1.94239        0.32795
H         -1.43804        2.49916       -0.30898
H          0.20703        3.81604        0.93098
H          1.48865        2.79657        1.67753
H          1.91616        4.13882        0.60320
H         -3.51256        1.68593       -0.10457
H         -4.00225       -1.19379       -1.01800
H         -5.08123        0.19141       -1.17905
H         -3.55666        0.15222       -2.07653
H         -5.06919        0.40663        1.33441
H         -3.82755       -0.79487        1.68041
H         -2.54760        0.88561        2.52406
H         -2.37774       -3.92518        0.06691
H         -1.06736       -3.24775       -0.90730
H         -0.84255       -3.55485        0.85939

--Link1--
%chk=JID_5640.chk
%mem=8GB
%nprocshared=4
# B3LYP/6-311++G(d,p) empiricaldispersion=gd3bj scf=xqc pop=npa geom=check

CID_72780132_JID_5640_Energie_neutraal

0 1

--Link1--
%chk=JID_5640.chk
%mem=8GB
%nprocshared=4
# B3LYP/6-311++G(d,p) empiricaldispersion=gd3bj scf=xqc pop=npa geom=check

CID_72780132_JID_5640_Energie_kation

1 2

--Link1--
%chk=JID_5640.chk
%mem=8GB
%nprocshared=4
# B3LYP/6-311++G(d,p) empiricaldispersion=gd3bj scf=xqc pop=npa geom=check

CID_72780132_JID_5640_Energie_anion

-1 2
