%chk=JID_6420.chk
%mem=8GB
%nprocshared=4
# opt freq B3LYP/6-31G(d) empiricaldispersion=gd3bj scf=xqc

CID_79358357_JID_6420_neutraal

0 1
C          1.04956        0.04533        0.07409
C         -0.06926       -0.97344        0.16068
C          0.05717       -2.23487       -0.68130
C          0.20748       -2.33331        0.82815
C          1.59655       -2.64255        1.35044
C         -0.86085       -2.95071        1.70212
N         -1.09732       -2.77563       -1.41155
C         -0.82582       -4.03830       -2.09972
C         -0.84534       -5.27511       -1.19350
C         -2.20394       -5.60784       -0.56260
C         -3.32286       -5.96633       -1.54919
C         -3.07588       -7.24177       -2.35042
C         -3.06948       -8.45797       -1.46660
O         -3.98437       -8.84225       -0.75776
O         -1.90146       -9.12485       -1.50286
C         -1.41614       -0.30300        0.33244
H          1.21496        0.50574        1.05365
H          0.79105        0.83751       -0.63701
H          1.99506       -0.38777       -0.26520
H          0.97634       -2.28992       -1.26744
H          1.77726       -2.10164        2.28503
H          1.69782       -3.71500        1.54992
H          2.38715       -2.37692        0.64229
H         -1.87558       -2.83062        1.31862
H         -0.68427       -4.02548        1.81692
H         -0.83058       -2.49798        2.69915
H         -1.92653       -2.85652       -0.83014
H         -1.56685       -4.15599       -2.89727
H          0.14277       -3.98323       -2.61216
H         -0.49316       -6.13609       -1.77315
H         -0.11013       -5.14557       -0.39007
H         -2.06251       -6.43855        0.13947
H         -2.54524       -4.76354        0.04493
H         -4.25382       -6.07779       -0.97845
H         -3.49047       -5.13459       -2.24186
H         -3.87411       -7.38430       -3.08797
H         -2.14106       -7.18145       -2.91662
H         -2.03651       -9.87190       -0.88242
H         -1.45302        0.21447        1.29707
H         -1.57148        0.44023       -0.45737
H         -2.26489       -0.98927        0.29147

--Link1--
%chk=JID_6420.chk
%mem=8GB
%nprocshared=4
# B3LYP/6-311++G(d,p) empiricaldispersion=gd3bj scf=xqc pop=npa geom=check

CID_79358357_JID_6420_Energie_neutraal

0 1

--Link1--
%chk=JID_6420.chk
%mem=8GB
%nprocshared=4
# B3LYP/6-311++G(d,p) empiricaldispersion=gd3bj scf=xqc pop=npa geom=check

CID_79358357_JID_6420_Energie_kation

1 2

--Link1--
%chk=JID_6420.chk
%mem=8GB
%nprocshared=4
# B3LYP/6-311++G(d,p) empiricaldispersion=gd3bj scf=xqc pop=npa geom=check

CID_79358357_JID_6420_Energie_anion

-1 2
