%chk=JID_10940.chk
%mem=8GB
%nprocshared=4
# opt freq B3LYP/6-31G(d) empiricaldispersion=gd3bj scf=xqc

CID_66414653_JID_10940_neutraal

0 1
C          1.34400       -0.22500        0.03600
C          0.97832        1.09701        0.31746
C         -0.36459        1.48865        0.40190
C         -1.33955        0.48777        0.27374
C         -0.97629       -0.84083        0.00147
C          0.36718       -1.20124       -0.12871
N         -2.01798       -1.86432       -0.13952
O         -3.20058       -1.49744       -0.08979
O         -1.65427       -3.03785       -0.30586
N         -0.77603        2.77461        0.73615
C          0.04615        3.96042        0.50354
C         -0.47320        4.91468       -0.53215
C         -0.76702        6.25667       -0.34033
N         -1.18785        6.78293       -1.53399
C         -1.18043        5.81365       -2.49558
C         -0.74033        4.63078       -1.91096
C         -0.65974        3.50168       -2.74468
C         -1.02949        3.65120       -4.08204
C         -1.44990        4.89664       -4.52931
N         -1.54254        6.01532       -3.77548
H          2.39665       -0.49066       -0.03355
H          1.78304        1.80683        0.48425
H         -2.38915        0.75195        0.38950
H          0.66563       -2.22627       -0.33682
H         -1.75449        2.95998        0.52730
H          0.10400        4.49163        1.46223
H          1.08154        3.72493        0.24053
H         -0.70373        6.88122        0.54135
H         -1.46427        7.73790       -1.70887
H         -0.32623        2.54165       -2.36676
H         -0.99008        2.80817       -4.76332
H         -1.73981        5.03094       -5.56907

--Link1--
%chk=JID_10940.chk
%mem=8GB
%nprocshared=4
# B3LYP/6-311++G(d,p) empiricaldispersion=gd3bj scf=xqc pop=npa geom=check

CID_66414653_JID_10940_Energie_neutraal

0 1

--Link1--
%chk=JID_10940.chk
%mem=8GB
%nprocshared=4
# B3LYP/6-311++G(d,p) empiricaldispersion=gd3bj scf=xqc pop=npa geom=check

CID_66414653_JID_10940_Energie_kation

1 2

--Link1--
%chk=JID_10940.chk
%mem=8GB
%nprocshared=4
# B3LYP/6-311++G(d,p) empiricaldispersion=gd3bj scf=xqc pop=npa geom=check

CID_66414653_JID_10940_Energie_anion

-1 2
