%chk=JID_2188.chk
%mem=8GB
%nprocshared=4
# opt freq B3LYP/6-31G(d) empiricaldispersion=gd3bj scf=xqc

CID_63656057_JID_2188_neutraal

0 1
C          1.05456       -0.05958        0.05894
C         -0.24930       -0.05958        0.05894
C         -1.76930       -0.05958        0.05894
C         -2.36472       -0.61363        1.35848
N         -2.08662        0.25854        2.50205
C         -2.77991       -0.13731        3.72621
C         -1.92775       -0.93236        4.73246
C         -1.45787       -2.29237        4.19822
C         -0.78931       -3.11681        5.29500
C         -1.66639       -3.18468        6.53508
O         -1.97924       -1.87115        6.99260
C         -2.72804       -1.13201        6.02811
H          2.12028       -0.05569        0.05641
H         -2.12543        0.96192       -0.12010
H         -2.11047       -0.67334       -0.78306
H         -3.44956       -0.69034        1.21659
H         -1.98207       -1.62380        1.53444
H         -1.08006        0.33098        2.65482
H         -3.09132        0.79426        4.21538
H         -3.70998       -0.67511        3.50177
H         -1.03017       -0.34943        4.98239
H         -2.31430       -2.85130        3.80046
H         -0.74558       -2.15789        3.37721
H         -0.56801       -4.12508        4.92945
H          0.16447       -2.64172        5.55544
H         -2.59367       -3.73657        6.34089
H         -1.13572       -3.70222        7.34040
H         -2.96466       -0.16118        6.47699
H         -3.67943       -1.64512        5.84036

--Link1--
%chk=JID_2188.chk
%mem=8GB
%nprocshared=4
# B3LYP/6-311++G(d,p) empiricaldispersion=gd3bj scf=xqc pop=npa geom=check

CID_63656057_JID_2188_Energie_neutraal

0 1

--Link1--
%chk=JID_2188.chk
%mem=8GB
%nprocshared=4
# B3LYP/6-311++G(d,p) empiricaldispersion=gd3bj scf=xqc pop=npa geom=check

CID_63656057_JID_2188_Energie_kation

1 2

--Link1--
%chk=JID_2188.chk
%mem=8GB
%nprocshared=4
# B3LYP/6-311++G(d,p) empiricaldispersion=gd3bj scf=xqc pop=npa geom=check

CID_63656057_JID_2188_Energie_anion

-1 2
