%chk=JID_4030.chk
%mem=8GB
%nprocshared=4
# opt freq B3LYP/6-31G(d) empiricaldispersion=gd3bj scf=xqc

CID_131058735_JID_4030_neutraal

0 1
C         -2.37200       -0.01600        0.01400
C         -0.88133        0.02907        0.13313
N         -0.19010       -1.05779       -0.25003
C          1.15431       -0.99778       -0.09791
C          1.84950        0.06478        0.45230
C          1.01901        1.12790        0.77366
N         -0.32802        1.13833        0.65043
N          3.23253        0.17661        0.55911
C          4.09868       -0.99860        0.46802
C          4.56859       -1.24299       -0.98568
C          5.43875       -0.06064       -1.44721
C          5.32270       -2.60179       -1.12123
C          4.41193       -3.79857       -0.81274
C          5.92275       -2.80517       -2.51902
H         -2.67143       -0.63484       -0.83736
H         -2.80174       -0.43906        0.92655
H         -2.77784        0.98939       -0.13413
H          1.66545       -1.88600       -0.45383
H          1.43333        2.05436        1.16211
H          3.52162        0.83137        1.28293
H          4.97925       -0.82152        1.09879
H          3.59441       -1.86631        0.90228
H          3.69196       -1.27266       -1.64564
H          6.38816       -0.03349       -0.90190
H          5.65799       -0.12135       -2.51757
H          4.93206        0.89723       -1.29096
H          6.15138       -2.61701       -0.40105
H          3.51360       -3.78316       -1.43907
H          4.93413       -4.74409       -0.99699
H          4.10019       -3.81424        0.23483
H          6.72479       -2.08815       -2.71859
H          6.36421       -3.80345       -2.61429
H          5.15951       -2.69782       -3.29703

--Link1--
%chk=JID_4030.chk
%mem=8GB
%nprocshared=4
# B3LYP/6-311++G(d,p) empiricaldispersion=gd3bj scf=xqc pop=npa geom=check

CID_131058735_JID_4030_Energie_neutraal

0 1

--Link1--
%chk=JID_4030.chk
%mem=8GB
%nprocshared=4
# B3LYP/6-311++G(d,p) empiricaldispersion=gd3bj scf=xqc pop=npa geom=check

CID_131058735_JID_4030_Energie_kation

1 2

--Link1--
%chk=JID_4030.chk
%mem=8GB
%nprocshared=4
# B3LYP/6-311++G(d,p) empiricaldispersion=gd3bj scf=xqc pop=npa geom=check

CID_131058735_JID_4030_Energie_anion

-1 2
