%chk=JID_9347.chk
%mem=8GB
%nprocshared=4
# opt freq B3LYP/6-31G(d) empiricaldispersion=gd3bj scf=xqc

CID_106304363_JID_9347_neutraal

0 1
C          1.03339        0.09320       -0.01410
C          0.69039       -0.98878        0.99955
N          0.73712       -0.43885        2.35435
C          0.50556       -1.45746        3.37632
C          1.73136       -2.31401        3.71641
C          2.95164       -1.55989        4.25671
C          2.71318       -0.63949        5.44967
S          2.45887       -1.46517        7.01632
O          3.41896       -2.53261        7.15220
O          2.30583       -0.45098        8.03668
N          0.90512       -2.11527        6.84855
C          0.65583       -3.31391        7.69142
C          0.63230       -4.53430        6.84152
N          1.53717       -5.49477        6.83152
N          1.14990       -6.44995        5.92338
C          0.01408       -6.05966        5.40005
N         -0.35934       -4.87238        5.95431
C         -1.56306       -4.14415        5.62654
C         -2.74644       -4.57908        6.47308
H          0.34999        0.94526        0.06676
H          0.95630       -0.30529       -1.03085
H          2.05622        0.45813        0.12839
H         -0.31577       -1.36747        0.78681
H          1.39816       -1.81580        0.88158
H          1.62826        0.03095        2.50332
H          0.15604       -0.94836        4.28051
H         -0.32419       -2.11101        3.07902
H          1.43260       -3.07483        4.44157
H          2.04249       -2.87553        2.82700
H          3.72574       -2.29538        4.50708
H          3.37054       -0.95574        3.44261
H          3.61474       -0.03330        5.60252
H          1.88778        0.06023        5.29569
H          0.25347       -1.36973        7.10516
H          1.39083       -3.41209        8.49691
H         -0.31470       -3.18693        8.18536
H         -0.55589       -6.58792        4.64912
H         -1.37307       -3.07476        5.75213
H         -1.77369       -4.31312        4.56428
H         -2.55456       -4.41117        7.53792
H         -3.64134       -4.01488        6.19341
H         -2.95908       -5.64487        6.33680

--Link1--
%chk=JID_9347.chk
%mem=8GB
%nprocshared=4
# B3LYP/6-311++G(d,p) empiricaldispersion=gd3bj scf=xqc pop=npa geom=check

CID_106304363_JID_9347_Energie_neutraal

0 1

--Link1--
%chk=JID_9347.chk
%mem=8GB
%nprocshared=4
# B3LYP/6-311++G(d,p) empiricaldispersion=gd3bj scf=xqc pop=npa geom=check

CID_106304363_JID_9347_Energie_kation

1 2

--Link1--
%chk=JID_9347.chk
%mem=8GB
%nprocshared=4
# B3LYP/6-311++G(d,p) empiricaldispersion=gd3bj scf=xqc pop=npa geom=check

CID_106304363_JID_9347_Energie_anion

-1 2
