%chk=JID_4073.chk
%mem=8GB
%nprocshared=4
# opt freq B3LYP/6-31G(d) empiricaldispersion=gd3bj scf=xqc

CID_83238718_JID_4073_neutraal

0 1
C          1.08063        0.05914       -0.00079
C          1.02716        0.15237       -1.51841
C          1.53881       -1.10847       -2.22446
C          0.67160       -2.35145       -2.02629
C         -0.61067       -2.32959       -2.85130
O         -1.43947       -1.43622       -2.89811
N         -0.67483       -3.55279       -3.49468
C          0.37043       -4.42861       -3.07611
N          1.38580       -3.54173       -2.53698
C         -1.81367       -4.04045       -4.27673
C         -3.04184       -4.22388       -3.38386
C         -2.14848       -3.14296       -5.48872
O         -1.20227       -3.30662       -6.55349
C         -0.10637       -2.40515       -6.47168
H          0.38724       -0.69567        0.38056
H          0.80105        1.01973        0.44385
H          2.08927       -0.19124        0.34269
H          0.00659        0.38933       -1.83485
H          1.65286        0.99707       -1.83167
H          1.61862       -0.88620       -3.29705
H          2.55882       -1.30881       -1.87057
H          0.40063       -2.51744       -0.97858
H          0.75604       -4.99962       -3.92514
H         -0.02166       -5.10754       -2.31125
H          1.89731       -3.99963       -1.78757
H         -1.52210       -5.02422       -4.66706
H         -3.40863       -3.26750       -2.99720
H         -3.85835       -4.69672       -3.93981
H         -2.80686       -4.86194       -2.52503
H         -3.10878       -3.46639       -5.90653
H         -2.26219       -2.08608       -5.22445
H         -0.45453       -1.37008       -6.40303
H          0.54050       -2.64639       -5.62643
H          0.48470       -2.50818       -7.38602

--Link1--
%chk=JID_4073.chk
%mem=8GB
%nprocshared=4
# B3LYP/6-311++G(d,p) empiricaldispersion=gd3bj scf=xqc pop=npa geom=check

CID_83238718_JID_4073_Energie_neutraal

0 1

--Link1--
%chk=JID_4073.chk
%mem=8GB
%nprocshared=4
# B3LYP/6-311++G(d,p) empiricaldispersion=gd3bj scf=xqc pop=npa geom=check

CID_83238718_JID_4073_Energie_kation

1 2

--Link1--
%chk=JID_4073.chk
%mem=8GB
%nprocshared=4
# B3LYP/6-311++G(d,p) empiricaldispersion=gd3bj scf=xqc pop=npa geom=check

CID_83238718_JID_4073_Energie_anion

-1 2
