%chk=JID_10196.chk
%mem=8GB
%nprocshared=4
# opt freq B3LYP/6-31G(d) empiricaldispersion=gd3bj scf=xqc

CID_116397051_JID_10196_neutraal

0 1
C          0.90247       -0.02016        0.00898
C         -0.21834       -0.84045        0.66899
C         -1.59724       -0.13996        0.49407
S         -2.21446       -0.16308       -1.24177
C         -1.99427       -1.94268       -1.58121
C         -0.58610       -2.44130       -1.24781
N         -0.26847       -2.24697        0.17979
C          0.70966       -3.10723        0.70717
C          0.50460       -3.74900        1.94672
C          1.47121       -4.64662        2.44361
C          2.63033       -4.94762        1.72089
C          2.84538       -4.29127        0.50886
C          1.89626       -3.39013        0.01067
C          3.58008       -5.91907        2.28138
C          4.27107       -6.79853        1.53927
C          5.18024       -7.80506        2.10338
O          5.84151       -8.58163        1.43730
O          5.21944       -7.81875        3.44402
C         -0.74801       -3.53140        2.75166
C         -2.66661       -0.71983        1.42155
H          0.91506        0.99957        0.40925
H          0.79511        0.05133       -1.07691
H          1.88370       -0.46001        0.21352
H         -0.00184       -0.84515        1.74567
H         -1.48361        0.91819        0.75893
H         -2.19918       -2.10948       -2.64364
H         -2.74547       -2.50329       -1.01537
H          0.15382       -1.95367       -1.89357
H         -0.56093       -3.51235       -1.49040
H          1.29306       -5.14219        3.39681
H          3.75025       -4.46546       -0.06748
H          2.10413       -2.90050       -0.93684
H          3.66642       -5.92407        3.36595
H          4.18505       -6.83790        0.45940
H          5.84664       -8.54220        3.65060
H         -0.74901       -2.53132        3.19345
H         -1.63548       -3.66373        2.12555
H         -0.82828       -4.25411        3.57108
H         -2.34558       -0.64082        2.46602
H         -3.60890       -0.16750        1.33294
H         -2.87313       -1.77492        1.21991

--Link1--
%chk=JID_10196.chk
%mem=8GB
%nprocshared=4
# B3LYP/6-311++G(d,p) empiricaldispersion=gd3bj scf=xqc pop=npa geom=check

CID_116397051_JID_10196_Energie_neutraal

0 1

--Link1--
%chk=JID_10196.chk
%mem=8GB
%nprocshared=4
# B3LYP/6-311++G(d,p) empiricaldispersion=gd3bj scf=xqc pop=npa geom=check

CID_116397051_JID_10196_Energie_kation

1 2

--Link1--
%chk=JID_10196.chk
%mem=8GB
%nprocshared=4
# B3LYP/6-311++G(d,p) empiricaldispersion=gd3bj scf=xqc pop=npa geom=check

CID_116397051_JID_10196_Energie_anion

-1 2
