%chk=JID_7048.chk
%mem=8GB
%nprocshared=4
# opt freq B3LYP/6-31G(d) empiricaldispersion=gd3bj scf=xqc

CID_107055316_JID_7048_neutraal

0 1
C          0.91472        0.00273       -0.05215
C         -0.04732        0.99883        0.60012
C          0.27124        2.40396        0.07676
C         -1.52484        0.64726        0.31628
C         -2.22149       -0.14000        1.44964
C         -1.59843       -1.54492        1.68934
N         -2.33287       -2.44889        2.59072
C         -3.78998       -2.36087        2.43382
C         -4.36082       -0.94913        2.18833
N         -3.66035       -0.23287        1.11179
C         -1.86200       -2.43848        3.98722
C         -2.04743       -1.15840        4.72793
N         -1.13652       -0.16979        4.76418
N         -1.79144        0.71227        5.54215
N         -2.98188        0.30648        6.01132
N         -3.15836       -0.89941        5.48943
C         -1.22763        1.98548        5.89670
H          0.80639        0.00438       -1.14247
H          0.74854       -1.01892        0.29576
H          1.95337        0.26250        0.17998
H          0.13021        1.00246        1.68253
H          0.10168        2.47411       -1.00329
H         -0.35725        3.15368        0.56921
H          1.31600        2.66658        0.27447
H         -2.08824        1.58032        0.17409
H         -1.60780        0.09893       -0.63158
H         -2.13485        0.46258        2.35998
H         -0.56293       -1.44423        2.03241
H         -1.53879       -2.05752        0.71968
H         -4.04939       -2.97655        1.56195
H         -4.31029       -2.82844        3.27879
H         -4.33085       -0.35051        3.10449
H         -5.41813       -1.03646        1.91355
H         -3.75054       -0.78106        0.25576
H         -2.36545       -3.24316        4.53826
H         -0.79889       -2.71189        4.00334
H         -0.60815        1.84875        6.78596
H         -0.62225        2.35017        5.06302
H         -2.03625        2.69167        6.10039

--Link1--
%chk=JID_7048.chk
%mem=8GB
%nprocshared=4
# B3LYP/6-311++G(d,p) empiricaldispersion=gd3bj scf=xqc pop=npa geom=check

CID_107055316_JID_7048_Energie_neutraal

0 1

--Link1--
%chk=JID_7048.chk
%mem=8GB
%nprocshared=4
# B3LYP/6-311++G(d,p) empiricaldispersion=gd3bj scf=xqc pop=npa geom=check

CID_107055316_JID_7048_Energie_kation

1 2

--Link1--
%chk=JID_7048.chk
%mem=8GB
%nprocshared=4
# B3LYP/6-311++G(d,p) empiricaldispersion=gd3bj scf=xqc pop=npa geom=check

CID_107055316_JID_7048_Energie_anion

-1 2
