%chk=JID_3341.chk
%mem=8GB
%nprocshared=4
# opt freq B3LYP/6-31G(d) empiricaldispersion=gd3bj scf=xqc

CID_146677017_JID_3341_neutraal

0 1
C          1.02041        0.09554       -0.02133
C          0.29652       -1.19853       -0.37323
C          0.90681       -2.44456        0.30415
C          0.25564       -2.84370        1.65147
C          0.84881       -4.09467        2.26878
C          1.73405       -4.12660        3.27279
C          2.23723       -2.87456        3.87860
O          3.15310       -2.93137        4.69501
C          1.64785       -1.56944        3.43090
C          0.35761       -1.71994        2.67127
O         -0.54551       -0.88899        2.78875
N          0.85581       -3.59877       -0.67610
O         -0.29800       -3.99120       -0.88703
H          0.94373        0.34121        1.03908
H          0.58731        0.92906       -0.58411
H          2.08180        0.03237       -0.28215
H         -0.76724       -1.10711       -0.12265
H          0.34360       -1.29656       -1.46627
H          1.98338       -2.28506        0.45007
H         -0.81726       -3.03695        1.51255
H          0.51738       -5.04209        1.84286
H          2.13529       -5.05405        3.66774
H          2.37213       -1.05336        2.79365
H          1.44862       -0.96654        4.32324

--Link1--
%chk=JID_3341.chk
%mem=8GB
%nprocshared=4
# B3LYP/6-311++G(d,p) empiricaldispersion=gd3bj scf=xqc pop=npa geom=check

CID_146677017_JID_3341_Energie_neutraal

0 1

--Link1--
%chk=JID_3341.chk
%mem=8GB
%nprocshared=4
# B3LYP/6-311++G(d,p) empiricaldispersion=gd3bj scf=xqc pop=npa geom=check

CID_146677017_JID_3341_Energie_kation

1 2

--Link1--
%chk=JID_3341.chk
%mem=8GB
%nprocshared=4
# B3LYP/6-311++G(d,p) empiricaldispersion=gd3bj scf=xqc pop=npa geom=check

CID_146677017_JID_3341_Energie_anion

-1 2
