%chk=JID_2778.chk
%mem=8GB
%nprocshared=4
# opt freq B3LYP/6-31G(d) empiricaldispersion=gd3bj scf=xqc

CID_151921732_JID_2778_neutraal

0 1
C          1.02535       -0.07417       -0.06210
C          0.58805       -0.15923        1.39144
C          1.05200        1.03067        2.23887
C          0.49495        2.41111        1.82779
C         -1.03892        2.43056        1.86784
C          1.03005        3.53046        2.75022
C          2.54207        3.77887        2.73026
S          3.13509        4.53017        1.17701
C          3.77438        3.05754        0.32084
N          4.78840        2.28812        1.04152
N          5.24949        1.31940        0.41568
N          5.66366        0.42993       -0.16305
H          0.56205        0.77468       -0.57298
H          0.73094       -0.98341       -0.59608
H          2.11254        0.02384       -0.13964
H         -0.49962       -0.27315        1.44480
H          1.01153       -1.07355        1.82518
H          0.77558        0.83142        3.28246
H          2.14686        1.05010        2.21137
H          0.79115        2.63501        0.79857
H         -1.41421        2.14385        2.85599
H         -1.42176        3.43101        1.63815
H         -1.46640        1.74844        1.12693
H          0.51723        4.47282        2.51457
H          0.74622        3.29088        3.78415
H          2.76905        4.50738        3.51718
H          3.10993        2.88032        2.98273
H          2.92796        2.41541        0.06133
H          4.19754        3.41611       -0.62503

--Link1--
%chk=JID_2778.chk
%mem=8GB
%nprocshared=4
# B3LYP/6-311++G(d,p) empiricaldispersion=gd3bj scf=xqc pop=npa geom=check

CID_151921732_JID_2778_Energie_neutraal

0 1

--Link1--
%chk=JID_2778.chk
%mem=8GB
%nprocshared=4
# B3LYP/6-311++G(d,p) empiricaldispersion=gd3bj scf=xqc pop=npa geom=check

CID_151921732_JID_2778_Energie_kation

1 2

--Link1--
%chk=JID_2778.chk
%mem=8GB
%nprocshared=4
# B3LYP/6-311++G(d,p) empiricaldispersion=gd3bj scf=xqc pop=npa geom=check

CID_151921732_JID_2778_Energie_anion

-1 2
