%chk=JID_5882.chk
%mem=8GB
%nprocshared=4
# opt freq B3LYP/6-31G(d) empiricaldispersion=gd3bj scf=xqc

CID_65992902_JID_5882_neutraal

0 1
C          1.01217       -0.07327        0.06696
C          0.58339       -0.19692       -1.38751
N          0.97806       -1.47543       -1.96556
C          2.22654       -1.62675       -2.52055
C          2.61903       -2.80575       -3.01062
N          1.86304       -3.94434       -3.02464
C          0.65329       -3.89226       -2.51917
C          0.11330       -2.56581       -1.88060
O         -0.99515       -2.53454       -1.35853
N         -0.17338       -5.01273       -2.49111
C          0.12015       -6.09591       -3.38851
C         -1.39153       -6.26740       -3.59624
C         -1.51826       -4.86695       -2.97833
C         -2.01303       -7.42030       -2.81864
N         -3.46195       -7.44818       -3.01135
H          0.57171       -0.86926        0.67630
H          0.69231        0.88947        0.47713
H          2.10062       -0.14177        0.16403
H         -0.50605       -0.09459       -1.45197
H          1.01774        0.61544       -1.98215
H          2.88026       -0.76060       -2.54025
H          3.61279       -2.90327       -3.44123
H          0.65147       -5.80166       -4.30036
H          0.64673       -6.91781       -2.89634
H         -1.66537       -6.30266       -4.65916
H         -2.25178       -4.75509       -2.17601
H         -1.63522       -4.06530       -3.71626
H         -1.60068       -8.36803       -3.18213
H         -1.78682       -7.35439       -1.74841
H         -3.84459       -8.26710       -2.53819
H         -3.88390       -6.64386       -2.54692

--Link1--
%chk=JID_5882.chk
%mem=8GB
%nprocshared=4
# B3LYP/6-311++G(d,p) empiricaldispersion=gd3bj scf=xqc pop=npa geom=check

CID_65992902_JID_5882_Energie_neutraal

0 1

--Link1--
%chk=JID_5882.chk
%mem=8GB
%nprocshared=4
# B3LYP/6-311++G(d,p) empiricaldispersion=gd3bj scf=xqc pop=npa geom=check

CID_65992902_JID_5882_Energie_kation

1 2

--Link1--
%chk=JID_5882.chk
%mem=8GB
%nprocshared=4
# B3LYP/6-311++G(d,p) empiricaldispersion=gd3bj scf=xqc pop=npa geom=check

CID_65992902_JID_5882_Energie_anion

-1 2
