%chk=JID_6212.chk
%mem=8GB
%nprocshared=4
# opt freq B3LYP/6-31G(d) empiricaldispersion=gd3bj scf=xqc

CID_61335730_JID_6212_neutraal

0 1
C          1.04838       -0.03556       -0.07996
C          0.25277       -0.28048        1.19357
C          0.53049        0.76644        2.23010
C         -0.09678        1.98290        2.40099
C          0.44412        2.72108        3.49224
C          1.46714        2.04710        4.13233
S          1.75989        0.52535        3.39460
C          2.28670        2.51578        5.32092
C          1.91555        1.72510        6.57959
N          3.72194        2.42998        5.10614
C          4.60302        3.37878        5.46700
N          5.80238        3.48066        4.89724
N          6.37950        4.52033        5.52031
C          5.59191        5.08645        6.47631
C          4.42470        4.35845        6.46948
C          7.71281        4.91928        5.14289
H          0.81039        0.94114       -0.51505
H          0.81675       -0.80383       -0.82448
H          2.12630       -0.06377        0.11217
H         -0.81792       -0.27764        0.95520
H          0.48114       -1.28027        1.58197
H         -0.90271        2.33257        1.76689
H          0.10090        3.70477        3.78963
H          2.00185        3.56278        5.49419
H          2.19961        0.66980        6.49540
H          2.42656        2.12830        7.46071
H          0.83704        1.76766        6.76847
H          3.98894        1.87133        4.30132
H          5.91657        5.92875        7.06989
H          3.57055        4.51498        7.11012
H          8.39090        4.08516        5.33967
H          7.71012        5.17048        4.07923
H          8.01222        5.79067        5.73041

--Link1--
%chk=JID_6212.chk
%mem=8GB
%nprocshared=4
# B3LYP/6-311++G(d,p) empiricaldispersion=gd3bj scf=xqc pop=npa geom=check

CID_61335730_JID_6212_Energie_neutraal

0 1

--Link1--
%chk=JID_6212.chk
%mem=8GB
%nprocshared=4
# B3LYP/6-311++G(d,p) empiricaldispersion=gd3bj scf=xqc pop=npa geom=check

CID_61335730_JID_6212_Energie_kation

1 2

--Link1--
%chk=JID_6212.chk
%mem=8GB
%nprocshared=4
# B3LYP/6-311++G(d,p) empiricaldispersion=gd3bj scf=xqc pop=npa geom=check

CID_61335730_JID_6212_Energie_anion

-1 2
