%chk=JID_3531.chk
%mem=8GB
%nprocshared=4
# opt freq B3LYP/6-31G(d) empiricaldispersion=gd3bj scf=xqc

CID_149574407_JID_3531_neutraal

0 1
C          1.06115       -0.06482       -0.04538
C         -0.24222       -0.31157       -0.79140
C         -0.21401       -1.57013       -1.66824
C         -0.05829       -2.90343       -0.97057
C         -0.60712       -3.16018        0.29289
C         -0.47913       -4.41850        0.90221
C          0.19291       -5.43927        0.21832
C          0.73192       -5.22011       -1.05725
C          0.59505       -3.95135       -1.64055
C          1.41814       -6.33917       -1.79917
N          2.55482       -6.86672       -1.05174
C         -1.05479       -4.66285        2.27347
N         -0.36104       -3.87802        3.28872
H          1.27107       -0.86030        0.67551
H          1.00518        0.87921        0.50605
H          1.90396       -0.00001       -0.74095
H         -1.07360       -0.34673       -0.07929
H         -0.43300        0.55171       -1.44110
H         -1.14769       -1.61200       -2.24363
H          0.59729       -1.45172       -2.39868
H         -1.13773       -2.38017        0.83435
H          0.30410       -6.42094        0.67613
H          1.00101       -3.77509       -2.63523
H          0.69420       -7.14060       -1.98523
H          1.76888       -5.99049       -2.77723
H          3.05736       -7.53024       -1.63727
H          3.20079       -6.10104       -0.86344
H         -2.11989       -4.40518        2.26990
H         -0.98630       -5.72582        2.53190
H         -0.67074       -4.17912        4.20983
H          0.63446       -4.09149        3.23520

--Link1--
%chk=JID_3531.chk
%mem=8GB
%nprocshared=4
# B3LYP/6-311++G(d,p) empiricaldispersion=gd3bj scf=xqc pop=npa geom=check

CID_149574407_JID_3531_Energie_neutraal

0 1

--Link1--
%chk=JID_3531.chk
%mem=8GB
%nprocshared=4
# B3LYP/6-311++G(d,p) empiricaldispersion=gd3bj scf=xqc pop=npa geom=check

CID_149574407_JID_3531_Energie_kation

1 2

--Link1--
%chk=JID_3531.chk
%mem=8GB
%nprocshared=4
# B3LYP/6-311++G(d,p) empiricaldispersion=gd3bj scf=xqc pop=npa geom=check

CID_149574407_JID_3531_Energie_anion

-1 2
