%chk=JID_4482.chk
%mem=8GB
%nprocshared=4
# opt freq B3LYP/6-31G(d) empiricaldispersion=gd3bj scf=xqc

CID_117111330_JID_4482_neutraal

0 1
C          2.49200        0.00400       -0.01400
C          0.99453       -0.05196       -0.07082
C          0.31907       -1.24990        0.20412
C         -1.08361       -1.34500        0.12890
C         -1.81702       -0.19500       -0.23424
C         -1.13363        1.00005       -0.52414
C          0.25663        1.06920       -0.44948
C         -3.32825       -0.20623       -0.36664
C         -3.81896       -0.28703       -1.82725
C         -3.49675       -1.62907       -2.48611
N         -5.27536       -0.06913       -1.87044
N         -1.76703       -2.54489        0.43369
C         -1.19759       -3.74691       -0.17682
C         -1.99300       -2.65795        1.87856
H          2.87574       -0.64422        0.78084
H          2.91497       -0.31808       -0.97050
H          2.83924        1.02016        0.20072
H          0.90237       -2.11775        0.49929
H         -1.69162        1.88770       -0.81591
H          0.75602        2.00561       -0.68620
H         -3.77219       -1.01489        0.22580
H         -3.70496        0.71779        0.09513
H         -3.35169        0.51057       -2.41680
H         -3.91200       -2.46729       -1.91571
H         -3.90783       -1.67667       -3.50100
H         -2.41585       -1.77630       -2.57320
H         -5.59864       -0.15603       -2.83321
H         -5.73820       -0.81608       -1.35234
H         -0.27103       -4.06398        0.31435
H         -1.91517       -4.57071       -0.09418
H         -1.00411       -3.59550       -1.24483
H         -2.51007       -1.77632        2.27450
H         -2.63041       -3.52450        2.08641
H         -1.05229       -2.78988        2.42603

--Link1--
%chk=JID_4482.chk
%mem=8GB
%nprocshared=4
# B3LYP/6-311++G(d,p) empiricaldispersion=gd3bj scf=xqc pop=npa geom=check

CID_117111330_JID_4482_Energie_neutraal

0 1

--Link1--
%chk=JID_4482.chk
%mem=8GB
%nprocshared=4
# B3LYP/6-311++G(d,p) empiricaldispersion=gd3bj scf=xqc pop=npa geom=check

CID_117111330_JID_4482_Energie_kation

1 2

--Link1--
%chk=JID_4482.chk
%mem=8GB
%nprocshared=4
# B3LYP/6-311++G(d,p) empiricaldispersion=gd3bj scf=xqc pop=npa geom=check

CID_117111330_JID_4482_Energie_anion

-1 2
