%chk=JID_5535.chk
%mem=8GB
%nprocshared=4
# opt freq B3LYP/6-31G(d) empiricaldispersion=gd3bj scf=xqc

CID_143524446_JID_5535_neutraal

0 1
C          1.00642       -0.01213        0.09905
C          0.36194        0.88229       -0.96656
C          0.41795        0.15177       -2.31631
C         -1.09063        1.27984       -0.59138
C         -1.10299        2.07691        0.72974
O         -0.71410        3.24775        0.78109
C         -1.58920        1.36064        1.96396
N         -1.64406        2.14551       -1.65712
C         -3.08459        2.02470       -1.86531
C         -3.94640        2.43888       -0.70061
C         -3.88992        3.73533       -0.17913
C         -4.70124        4.05736        0.89740
N         -5.56602        3.19366        1.47094
C         -5.62531        1.95511        0.94062
C         -4.84788        1.53562       -0.12796
H          0.39499       -0.89898        0.29658
H          1.14585        0.52878        1.03966
H          1.99771       -0.35017       -0.22248
H          0.97698        1.78906       -1.04822
H         -0.20761       -0.74737       -2.30456
H          0.07889        0.79284       -3.13609
H          1.44360       -0.15362       -2.55081
H         -1.69677        0.37275       -0.47837
H         -2.54422        0.87180        1.76095
H         -0.85491        0.61904        2.28265
H         -1.73866        2.08466        2.76988
H         -1.39047        3.11489       -1.44771
H         -3.36176        2.64658       -2.72557
H         -3.31597        0.99534       -2.16670
H         -3.21459        4.48105       -0.58653
H         -4.67316        5.04918        1.33988
H         -6.33713        1.28408        1.41293
H         -4.94910        0.52198       -0.50157

--Link1--
%chk=JID_5535.chk
%mem=8GB
%nprocshared=4
# B3LYP/6-311++G(d,p) empiricaldispersion=gd3bj scf=xqc pop=npa geom=check

CID_143524446_JID_5535_Energie_neutraal

0 1

--Link1--
%chk=JID_5535.chk
%mem=8GB
%nprocshared=4
# B3LYP/6-311++G(d,p) empiricaldispersion=gd3bj scf=xqc pop=npa geom=check

CID_143524446_JID_5535_Energie_kation

1 2

--Link1--
%chk=JID_5535.chk
%mem=8GB
%nprocshared=4
# B3LYP/6-311++G(d,p) empiricaldispersion=gd3bj scf=xqc pop=npa geom=check

CID_143524446_JID_5535_Energie_anion

-1 2
