%chk=JID_4735.chk
%mem=8GB
%nprocshared=4
# opt freq B3LYP/6-31G(d) empiricaldispersion=gd3bj scf=xqc

CID_148826569_JID_4735_neutraal

0 1
C          0.97817        0.00746       -0.09730
C          0.28436        1.32475        0.06202
C         -0.48147        1.94454       -0.86148
C         -1.00902        3.28519       -0.62013
N         -1.85074        3.87560       -1.45771
C         -2.19489        5.14040       -1.01682
C         -3.07458        6.03096       -1.66543
C         -3.33206        7.28651       -1.10519
C         -2.72411        7.66231        0.08828
C         -1.84811        6.79587        0.74971
C         -1.59913        5.53700        0.17726
S         -0.58855        4.27066        0.74173
N         -0.79052        1.35101       -2.09894
C         -1.66178        0.18440       -2.16677
H          1.01641       -0.33772       -1.13377
H          0.48271       -0.75363        0.51268
H          2.01366        0.09834        0.24736
H          0.48991        1.78955        1.02181
H         -3.54555        5.73339       -2.59691
H         -4.01118        7.97065       -1.60855
H         -2.93112        8.64218        0.51369
H         -1.37328        7.08996        1.68079
H         -1.20223        2.09120       -2.68057
H         -2.65141        0.41969       -1.76164
H         -1.78290       -0.11464       -3.21234
H         -1.25054       -0.66786       -1.61972

--Link1--
%chk=JID_4735.chk
%mem=8GB
%nprocshared=4
# B3LYP/6-311++G(d,p) empiricaldispersion=gd3bj scf=xqc pop=npa geom=check

CID_148826569_JID_4735_Energie_neutraal

0 1

--Link1--
%chk=JID_4735.chk
%mem=8GB
%nprocshared=4
# B3LYP/6-311++G(d,p) empiricaldispersion=gd3bj scf=xqc pop=npa geom=check

CID_148826569_JID_4735_Energie_kation

1 2

--Link1--
%chk=JID_4735.chk
%mem=8GB
%nprocshared=4
# B3LYP/6-311++G(d,p) empiricaldispersion=gd3bj scf=xqc pop=npa geom=check

CID_148826569_JID_4735_Energie_anion

-1 2
