%chk=JID_9808.chk
%mem=8GB
%nprocshared=4
# opt freq B3LYP/6-31G(d) empiricaldispersion=gd3bj scf=xqc

CID_129131262_JID_9808_neutraal

0 1
C          2.49200        0.00400       -0.01400
C          0.99431        0.10325        0.00277
C          0.21066       -0.80449       -0.71724
C         -1.18527       -0.74688       -0.64911
C         -1.82137        0.21451        0.14280
C         -1.03759        1.11516        0.87201
C          0.35862        1.06230        0.79930
S         -3.59762        0.15216        0.30759
N         -4.04582        1.76636        0.19153
C         -4.88446        2.34611        1.10851
C         -5.09306        3.65266        0.71426
C         -4.39535        3.83822       -0.50257
N         -4.32064        4.93844       -1.29382
C         -3.60012        4.74714       -2.42837
C         -2.98416        3.53072       -2.73044
N         -3.02211        2.42434       -1.94718
C         -3.75502        2.63968       -0.82735
C         -3.49103        5.90876       -3.39037
N         -4.42296        5.81984       -4.51554
H          2.83927       -0.56009        0.85707
H          2.84377       -0.49883       -0.92093
H          2.94467        1.00097        0.00200
H          0.67892       -1.57304       -1.32803
H         -1.77091       -1.47284       -1.20854
H         -1.49729        1.85503        1.52172
H          0.94689        1.76673        1.38326
H         -5.25322        1.79769        1.96561
H         -5.69895        4.38850        1.22482
H         -2.41939        3.40888       -3.65017
H         -3.69236        6.83773       -2.84426
H         -2.46358        5.98184       -3.76512
H         -4.33067        6.65185       -5.09487
H         -4.19448        5.02249       -5.10404

--Link1--
%chk=JID_9808.chk
%mem=8GB
%nprocshared=4
# B3LYP/6-311++G(d,p) empiricaldispersion=gd3bj scf=xqc pop=npa geom=check

CID_129131262_JID_9808_Energie_neutraal

0 1

--Link1--
%chk=JID_9808.chk
%mem=8GB
%nprocshared=4
# B3LYP/6-311++G(d,p) empiricaldispersion=gd3bj scf=xqc pop=npa geom=check

CID_129131262_JID_9808_Energie_kation

1 2

--Link1--
%chk=JID_9808.chk
%mem=8GB
%nprocshared=4
# B3LYP/6-311++G(d,p) empiricaldispersion=gd3bj scf=xqc pop=npa geom=check

CID_129131262_JID_9808_Energie_anion

-1 2
