%chk=JID_1684.chk
%mem=8GB
%nprocshared=4
# opt freq B3LYP/6-31G(d) empiricaldispersion=gd3bj scf=xqc

CID_123161482_JID_1684_neutraal

0 1
C          1.00519        0.02100       -0.09763
C          1.12612       -0.05065        1.41674
C          1.65846        1.24230        2.04889
C          0.65490        2.36302        2.23482
C         -0.33708        2.22882        3.09902
C         -0.98215        1.39122        4.03101
C         -1.45041        2.84655        3.70586
C          0.85537        3.69700        1.52190
C          2.27592        4.24704        1.70585
C          0.48514        3.66100        0.02800
C         -0.99739        3.40081       -0.21452
H          0.21217        0.70662       -0.40154
H          0.75630       -0.96637       -0.50011
H          1.94479        0.34432       -0.55625
H          0.16124       -0.33801        1.84864
H          1.82719       -0.85941        1.65788
H          2.05416        0.99193        3.04346
H          2.52732        1.58153        1.47648
H         -1.56603        0.57078        3.63854
H         -0.47485        1.21696        4.96942
H         -1.24637        3.62318        4.42953
H         -2.33260        2.97619        3.09500
H          0.19392        4.43904        1.99312
H          3.01180        3.69270        1.11432
H          2.32309        5.29235        1.38040
H          2.58197        4.21324        2.75701
H          0.73367        4.62819       -0.42711
H          1.08383        2.91067       -0.49958
H         -1.61191        4.16485        0.27272
H         -1.21324        3.42875       -1.28727
H         -1.30835        2.42260        0.16256

--Link1--
%chk=JID_1684.chk
%mem=8GB
%nprocshared=4
# B3LYP/6-311++G(d,p) empiricaldispersion=gd3bj scf=xqc pop=npa geom=check

CID_123161482_JID_1684_Energie_neutraal

0 1

--Link1--
%chk=JID_1684.chk
%mem=8GB
%nprocshared=4
# B3LYP/6-311++G(d,p) empiricaldispersion=gd3bj scf=xqc pop=npa geom=check

CID_123161482_JID_1684_Energie_kation

1 2

--Link1--
%chk=JID_1684.chk
%mem=8GB
%nprocshared=4
# B3LYP/6-311++G(d,p) empiricaldispersion=gd3bj scf=xqc pop=npa geom=check

CID_123161482_JID_1684_Energie_anion

-1 2
