%chk=JID_8259.chk
%mem=8GB
%nprocshared=4
# opt=(cartesian,calcfc) freq B3LYP/6-31G(d) empiricaldispersion=gd3bj scf=xqc

CID_116877850_JID_8259_neutraal

0 1
6	5.394477	 0.684861	 -0.644022
6	5.075828	 1.179358	 0.795575
6	3.995759	 0.176221	 1.294823
6	3.526856	 -0.661705	 0.057321
6	4.064998	 0.141197	 -1.164075
6	2.062048	 -0.953113	 0.011718
6	1.343830	 -2.135274	 -0.014881
7	0.001855	 -1.893865	 -0.036115
6	-0.133137	 -0.573507	 -0.060557
7	1.088785	 0.025257	 -0.030699
6	-1.415189	 0.142777	 -0.106483
6	-1.494700	 1.526525	 -0.133114
6	-2.732275	 2.165535	 -0.165487
6	-3.902073	 1.419552	 -0.177540
6	-3.856849	 0.025448	 -0.155814
6	-2.610708	 -0.609564	 -0.119403
6	-5.127878	 -0.790591	 -0.196675
7	-6.187976	 -0.156976	 0.585062
1	6.146352	 -0.113728	 -0.604547
1	5.818207	 1.496900	 -1.259870
1	5.951688	 1.236483	 1.425160
1	4.599115	 2.161513	 0.738258
1	3.149257	 0.677853	 1.765619
1	4.417751	 -0.509702	 2.052712
1	4.033901	 -1.618256	 0.064097
1	3.395022	 0.974922	 -1.396051
1	4.151136	 -0.472737	 -2.054583
1	1.743166	 -3.140830	 0.015407
1	1.264507	 1.026882	 -0.026259
1	-0.580627	 2.131033	 -0.121262
1	-2.782751	 3.252171	 -0.178507
1	-4.879264	 1.913993	 -0.192497
1	-2.537717	 -1.687808	 -0.086596
1	-5.473911	 -0.855524	 -1.246592
1	-4.877380	 -1.831666	 0.099320
1	-7.047703	 -0.718505	 0.494092
1	-5.955327	 -0.170225	 1.556043

--Link1--
%chk=JID_8259.chk
%mem=8GB
%nprocshared=4
# B3LYP/6-311++G(d,p) empiricaldispersion=gd3bj scf=xqc pop=npa geom=check

CID_116877850_JID_8259_Energie_neutraal

0 1

--Link1--
%chk=JID_8259.chk
%mem=8GB
%nprocshared=4
# B3LYP/6-311++G(d,p) empiricaldispersion=gd3bj scf=xqc pop=npa geom=check

CID_116877850_JID_8259_Energie_kation

1 2

--Link1--
%chk=JID_8259.chk
%mem=8GB
%nprocshared=4
# B3LYP/6-311++G(d,p) empiricaldispersion=gd3bj scf=xqc pop=npa geom=check

CID_116877850_JID_8259_Energie_anion

-1 2
