%chk=JID_8900.chk
%mem=8GB
%nprocshared=4
# opt freq B3LYP/6-31G(d) empiricaldispersion=gd3bj scf=xqc

CID_100944892_JID_8900_neutraal

0 1
C          0.93956       -0.04491        0.06580
C          0.71971        1.12328       -0.87887
O          1.30896        0.85362       -2.15954
C          2.64012        1.11279       -2.26843
O          3.33838        1.57104       -1.37089
C          3.17598        0.82794       -3.66467
C          2.41790       -0.24793       -4.43762
C          1.58199        0.01991       -5.46687
C          0.81232       -0.98733       -6.28472
O          0.78809       -2.19735       -6.13810
C          0.04682       -0.32638       -7.34808
C         -0.74089       -0.97418       -8.29290
C         -1.39980       -0.19918       -9.24786
C         -1.26270        1.19621       -9.24203
C         -0.46626        1.82902       -8.28136
C          0.18791        1.05340       -7.33373
S          1.23946        1.64397       -6.04514
C          2.73341       -1.63424       -3.92239
H          0.55458       -0.97105       -0.37357
H          0.43597        0.12927        1.02084
H          2.00542       -0.20299        0.25734
H         -0.35349        1.26283       -1.04541
H          1.10379        2.05927       -0.45728
H          3.21277        1.78545       -4.19146
H          4.21901        0.50376       -3.55693
H         -0.83672       -2.05633       -8.28684
H         -2.02146       -0.67919      -10.00075
H         -1.78000        1.79138       -9.99198
H         -0.36432        2.91057       -8.28382
H          3.81524       -1.80542       -3.95226
H          2.40121       -1.73503       -2.88367
H          2.27856       -2.44814       -4.48303

--Link1--
%chk=JID_8900.chk
%mem=8GB
%nprocshared=4
# B3LYP/6-311++G(d,p) empiricaldispersion=gd3bj scf=xqc pop=npa geom=check

CID_100944892_JID_8900_Energie_neutraal

0 1

--Link1--
%chk=JID_8900.chk
%mem=8GB
%nprocshared=4
# B3LYP/6-311++G(d,p) empiricaldispersion=gd3bj scf=xqc pop=npa geom=check

CID_100944892_JID_8900_Energie_kation

1 2

--Link1--
%chk=JID_8900.chk
%mem=8GB
%nprocshared=4
# B3LYP/6-311++G(d,p) empiricaldispersion=gd3bj scf=xqc pop=npa geom=check

CID_100944892_JID_8900_Energie_anion

-1 2
