%chk=JID_10677.chk
%mem=8GB
%nprocshared=4
# opt freq B3LYP/6-31G(d) empiricaldispersion=gd3bj scf=xqc

CID_65112008_JID_10677_neutraal

0 1
C          1.04972        0.08593       -0.01200
C          0.37150       -1.10240       -0.68676
C          0.43298       -2.42626        0.11108
C         -0.10492       -2.30051        1.55644
C         -1.55225       -1.84863        1.68351
C         -0.33198       -3.55059       -0.65212
N          0.21386       -3.85835       -1.97102
C          1.33336       -4.59138       -2.28244
O          1.87884       -4.35823       -3.35999
C          1.80666       -5.59468       -1.36306
C          1.11148       -6.50362       -0.58396
C          2.08537       -7.24504        0.11844
N          3.31846       -6.84374       -0.20233
N          3.13059       -5.90342       -1.15357
C          4.29961       -5.33906       -1.80628
C          4.67623       -3.97087       -1.26840
C          1.85887       -8.35877        1.10033
C          2.36722       -9.69780        0.56200
C          2.48057       -8.05522        2.46500
O          1.81882       -2.78878        0.22705
H          0.53284        0.37666        0.90684
H          1.03768        0.95125       -0.68276
H          2.09346       -0.13518        0.23051
H         -0.66938       -0.83822       -0.90698
H          0.87443       -1.24153       -1.65218
H          0.00384       -3.26937        2.06276
H          0.53571       -1.62028        2.13182
H         -2.23818       -2.55548        1.20848
H         -1.82846       -1.78397        2.74124
H         -1.70841       -0.86085        1.24141
H         -0.34067       -4.45786       -0.04725
H         -1.37379       -3.25781       -0.81998
H          0.03136       -3.17884       -2.69910
H          0.03885       -6.62946       -0.54023
H          5.13049       -6.03806       -1.65231
H          4.10970       -5.30797       -2.88284
H          4.82307       -3.99885       -0.18359
H          5.60596       -3.62556       -1.73119
H          3.90011       -3.23067       -1.48412
H          0.77536       -8.45781        1.25191
H          3.45261       -9.68651        0.41142
H          2.13217      -10.51042        1.25766
H          1.90087       -9.93463       -0.40092
H          2.10486       -7.10628        2.86371
H          2.23641       -8.84296        3.18573
H          3.57233       -7.98222        2.40489
H          1.87600       -3.65590        0.66775

--Link1--
%chk=JID_10677.chk
%mem=8GB
%nprocshared=4
# B3LYP/6-311++G(d,p) empiricaldispersion=gd3bj scf=xqc pop=npa geom=check

CID_65112008_JID_10677_Energie_neutraal

0 1

--Link1--
%chk=JID_10677.chk
%mem=8GB
%nprocshared=4
# B3LYP/6-311++G(d,p) empiricaldispersion=gd3bj scf=xqc pop=npa geom=check

CID_65112008_JID_10677_Energie_kation

1 2

--Link1--
%chk=JID_10677.chk
%mem=8GB
%nprocshared=4
# B3LYP/6-311++G(d,p) empiricaldispersion=gd3bj scf=xqc pop=npa geom=check

CID_65112008_JID_10677_Energie_anion

-1 2
