%chk=JID_5570.chk
%mem=8GB
%nprocshared=4
# opt freq B3LYP/6-31G(d) empiricaldispersion=gd3bj scf=xqc

CID_115267407_JID_5570_neutraal

0 1
C          1.05090       -0.03690       -0.07777
C          0.47207        0.31331       -1.45783
C          1.18404       -0.53455       -2.51729
C         -1.03796        0.04962       -1.43127
O          0.76027        1.72370       -1.63435
C          0.35758        2.37858       -2.74809
O         -0.23766        1.88592       -3.69652
N          0.67692        3.70233       -2.73272
C          1.46393        4.38135       -1.72899
C          2.94223        4.42439       -2.09119
C          3.41032        4.17672       -3.52429
C          3.40906        5.57039       -2.98266
C          3.86169        3.97408       -0.97194
N          3.82459        4.97837        0.09017
C          4.65789        4.57189        1.21389
H          0.89452       -1.09096        0.17444
H          0.59185        0.57884        0.70457
H          2.12664        0.17196       -0.04284
H          1.10013       -1.60370       -2.29433
H          0.76764       -0.37475       -3.51639
H          2.24660       -0.27274       -2.57473
H         -1.53931        0.73222       -0.73588
H         -1.49870        0.20553       -2.41127
H         -1.25740       -0.97984       -1.12810
H          0.42572        4.20064       -3.57343
H          1.07045        5.40082       -1.64886
H          1.30427        3.89827       -0.75921
H          4.36979        3.69451       -3.68132
H          2.69331        3.93852       -4.30102
H          2.66886        6.26251       -3.36955
H          4.36844        6.03348       -2.77985
H          3.52709        2.99735       -0.60221
H          4.88835        3.85501       -1.33994
H          4.17486        5.86150       -0.27934
H          5.70575        4.45922        0.91691
H          4.61038        5.33481        1.99706
H          4.30514        3.63113        1.64875

--Link1--
%chk=JID_5570.chk
%mem=8GB
%nprocshared=4
# B3LYP/6-311++G(d,p) empiricaldispersion=gd3bj scf=xqc pop=npa geom=check

CID_115267407_JID_5570_Energie_neutraal

0 1

--Link1--
%chk=JID_5570.chk
%mem=8GB
%nprocshared=4
# B3LYP/6-311++G(d,p) empiricaldispersion=gd3bj scf=xqc pop=npa geom=check

CID_115267407_JID_5570_Energie_kation

1 2

--Link1--
%chk=JID_5570.chk
%mem=8GB
%nprocshared=4
# B3LYP/6-311++G(d,p) empiricaldispersion=gd3bj scf=xqc pop=npa geom=check

CID_115267407_JID_5570_Energie_anion

-1 2
