%chk=JID_4288.chk
%mem=8GB
%nprocshared=4
# opt freq B3LYP/6-31G(d) empiricaldispersion=gd3bj scf=xqc

CID_151528413_JID_4288_neutraal

0 1
C          1.09578        0.01523       -0.02437
C          0.77399        1.28551       -0.73317
C          0.66248        2.48611       -0.15543
S          0.28902        3.77143       -1.24775
C          0.56132        2.71924       -2.75342
C          0.53579        1.26192       -2.21803
C         -0.63225        2.92568       -3.72259
N         -0.63551        4.27157       -4.32644
N         -1.53448        5.04191       -3.94040
N         -2.36326        5.74577       -3.59969
C          1.90262        3.04416       -3.49523
N          3.16900        2.60408       -2.85746
C          4.15611        2.24152       -3.88054
C          3.74175        3.64706       -2.00057
H          0.28700       -0.71018       -0.15706
H          1.23254        0.17379        1.05035
H          2.01988       -0.41768       -0.42020
H          0.79436        2.67053        0.90388
H         -0.43562        0.78392       -2.40042
H          1.28525        0.64201       -2.72350
H         -0.55719        2.20269       -4.54498
H         -1.58868        2.71264       -3.22381
H          1.82527        2.52609       -4.46260
H          1.95669        4.11121       -3.75147
H          4.38978        3.08099       -4.54535
H          5.08682        1.89694       -3.41558
H          3.79012        1.40671       -4.48891
H          3.94890        4.56994       -2.55463
H          3.09349        3.88992       -1.15792
H          4.68283        3.30030       -1.55742

--Link1--
%chk=JID_4288.chk
%mem=8GB
%nprocshared=4
# B3LYP/6-311++G(d,p) empiricaldispersion=gd3bj scf=xqc pop=npa geom=check

CID_151528413_JID_4288_Energie_neutraal

0 1

--Link1--
%chk=JID_4288.chk
%mem=8GB
%nprocshared=4
# B3LYP/6-311++G(d,p) empiricaldispersion=gd3bj scf=xqc pop=npa geom=check

CID_151528413_JID_4288_Energie_kation

1 2

--Link1--
%chk=JID_4288.chk
%mem=8GB
%nprocshared=4
# B3LYP/6-311++G(d,p) empiricaldispersion=gd3bj scf=xqc pop=npa geom=check

CID_151528413_JID_4288_Energie_anion

-1 2
