%chk=JID_3829.chk
%mem=8GB
%nprocshared=4
# opt freq B3LYP/6-31G(d) empiricaldispersion=gd3bj scf=xqc

CID_154212079_JID_3829_neutraal

0 1
C          1.07192        0.06945        0.00177
C          0.45526        1.44590       -0.29500
C          0.49661        1.71978       -1.80760
C         -1.02529        1.41063        0.13718
N          1.05384        2.55167        0.46876
C          2.48822        2.55963        0.72574
C          3.40316        2.94085       -0.44332
C          3.10904        4.29005       -1.10887
C          3.23336        5.45970       -0.17158
C          4.19252        6.39310       -0.28038
C          4.32998        7.58063        0.59481
O          4.94373        8.57207        0.22379
N          3.80187        7.48644        1.84093
H          0.50610       -0.72825       -0.49397
H          1.06708       -0.14735        1.07621
H          2.10445       -0.00061       -0.35728
H         -0.08543        0.96939       -2.35589
H          0.07054        2.70025       -2.05018
H          1.51309        1.68733       -2.20730
H         -1.12313        1.21671        1.21219
H         -1.53120        2.35967       -0.07846
H         -1.57345        0.62108       -0.39023
H          0.73872        3.44869        0.10376
H          2.65738        3.27752        1.53776
H          2.81706        1.60339        1.14713
H          4.43675        2.95258       -0.07191
H          3.37635        2.15460       -1.20477
H          3.79824        4.41120       -1.95433
H          2.10232        4.29369       -1.54071
H          2.46719        5.54243        0.59432
H          4.92425        6.35777       -1.08213
H          3.43494        6.62882        2.22377
H          3.95977        8.26414        2.46737

--Link1--
%chk=JID_3829.chk
%mem=8GB
%nprocshared=4
# B3LYP/6-311++G(d,p) empiricaldispersion=gd3bj scf=xqc pop=npa geom=check

CID_154212079_JID_3829_Energie_neutraal

0 1

--Link1--
%chk=JID_3829.chk
%mem=8GB
%nprocshared=4
# B3LYP/6-311++G(d,p) empiricaldispersion=gd3bj scf=xqc pop=npa geom=check

CID_154212079_JID_3829_Energie_kation

1 2

--Link1--
%chk=JID_3829.chk
%mem=8GB
%nprocshared=4
# B3LYP/6-311++G(d,p) empiricaldispersion=gd3bj scf=xqc pop=npa geom=check

CID_154212079_JID_3829_Energie_anion

-1 2
