%chk=JID_7351.chk
%mem=8GB
%nprocshared=4
# opt=(cartesian,calcfc,maxcycle=500) freq B3LYP/6-31G(d) empiricaldispersion=gd3bj scf=xqc

CID_106286293_JID_7351_neutraal

0 1
6	4.325330	 1.824785	 0.141175
6	3.120913	 1.047635	 0.683337
6	2.512416	 0.044103	 -0.316923
6	3.560704	 -0.918379	 -0.917260
6	4.297023	 -1.796555	 0.098565
6	1.321031	 -0.731194	 0.294688
6	0.255544	 0.162614	 0.971630
7	-0.296622	 1.139851	 0.041680
6	-1.561319	 1.608119	 -0.211183
8	-1.709082	 2.584142	 -0.938051
6	-2.868212	 0.952304	 0.315021
6	-2.896465	 -0.059621	 1.460953
8	-2.423823	 -1.349784	 1.083650
6	-3.119437	 -1.845972	 -0.058660
6	-3.032127	 -0.849101	 -1.203852
8	-3.572499	 0.404169	 -0.802643
7	0.744916	 -1.616346	 -0.724492
1	5.187694	 1.174106	 -0.036761
1	4.636091	 2.600474	 0.850535
1	4.082633	 2.318018	 -0.808827
1	3.406522	 0.519325	 1.602939
1	2.354064	 1.772625	 0.984504
1	2.119826	 0.629230	 -1.165626
1	3.051996	 -1.562854	 -1.638774
1	4.292556	 -0.327683	 -1.479962
1	3.609050	 -2.469104	 0.620831
1	5.040843	 -2.423230	 -0.407062
1	4.826223	 -1.204546	 0.853627
1	1.711460	 -1.375270	 1.093295
1	-0.537470	 -0.497641	 1.307130
1	0.675049	 0.671162	 1.850756
1	0.380259	 1.760688	 -0.388449
1	-3.465394	 1.815208	 0.623348
1	-3.942670	 -0.141827	 1.792949
1	-2.290657	 0.264964	 2.311794
1	-2.649073	 -2.801072	 -0.317751
1	-4.175148	 -2.024925	 0.198193
1	-3.622827	 -1.178333	 -2.063158
1	-1.984894	 -0.733098	 -1.520167
1	-0.020885	 -2.150259	 -0.315600
1	0.327528	 -1.041144	 -1.456670

--Link1--
%chk=JID_7351.chk
%mem=8GB
%nprocshared=4
# B3LYP/6-311++G(d,p) empiricaldispersion=gd3bj scf=xqc pop=npa geom=check

CID_106286293_JID_7351_Energie_neutraal

0 1

--Link1--
%chk=JID_7351.chk
%mem=8GB
%nprocshared=4
# B3LYP/6-311++G(d,p) empiricaldispersion=gd3bj scf=xqc pop=npa geom=check

CID_106286293_JID_7351_Energie_kation

1 2

--Link1--
%chk=JID_7351.chk
%mem=8GB
%nprocshared=4
# B3LYP/6-311++G(d,p) empiricaldispersion=gd3bj scf=xqc pop=npa geom=check

CID_106286293_JID_7351_Energie_anion

-1 2
