%chk=JID_5880.chk
%mem=8GB
%nprocshared=4
# opt freq B3LYP/6-31G(d) empiricaldispersion=gd3bj scf=xqc

CID_137703637_JID_5880_neutraal

0 1
C          0.94136        0.06327       -0.05058
C          0.09496        0.62142        1.08302
C          0.90642        1.45381        1.99812
N          1.66163        2.49723        1.73503
N          2.24524        2.86213        2.92808
C          1.80560        2.01529        3.83636
O          0.92248        1.10562        3.32187
C          2.14032        1.97328        5.28820
C          1.28871        1.02982        6.14135
C          1.77283       -0.42580        6.22391
N          3.22365       -0.57023        6.37257
C          4.05566        0.26549        5.50068
C          3.63450        1.73771        5.52998
C          4.22337       -0.30400        4.09245
C          1.20018       -1.35337        5.15344
H          1.37057        0.86709       -0.65861
H          0.33087       -0.56677       -0.70518
H          1.76755       -0.54455        0.33436
H         -0.72001        1.22617        0.67091
H         -0.36348       -0.20832        1.63301
H          1.92085        2.99183        5.64182
H          1.31808        1.42712        7.16713
H          0.23318        1.06905        5.84462
H          1.34768       -0.81910        7.15881
H          3.46478       -0.34638        7.34011
H          5.06455        0.22638        5.93440
H          4.24544        2.31796        4.82660
H          3.87412        2.13136        6.52833
H          5.01304        0.23749        3.55934
H          4.52228       -1.35747        4.13240
H          3.32298       -0.23463        3.48314
H          1.46672       -2.39483        5.36830
H          0.10603       -1.29543        5.14444
H          1.54994       -1.13173        4.14674

--Link1--
%chk=JID_5880.chk
%mem=8GB
%nprocshared=4
# B3LYP/6-311++G(d,p) empiricaldispersion=gd3bj scf=xqc pop=npa geom=check

CID_137703637_JID_5880_Energie_neutraal

0 1

--Link1--
%chk=JID_5880.chk
%mem=8GB
%nprocshared=4
# B3LYP/6-311++G(d,p) empiricaldispersion=gd3bj scf=xqc pop=npa geom=check

CID_137703637_JID_5880_Energie_kation

1 2

--Link1--
%chk=JID_5880.chk
%mem=8GB
%nprocshared=4
# B3LYP/6-311++G(d,p) empiricaldispersion=gd3bj scf=xqc pop=npa geom=check

CID_137703637_JID_5880_Energie_anion

-1 2
