%chk=JID_6234.chk
%mem=8GB
%nprocshared=4
# opt freq B3LYP/6-31G(d) empiricaldispersion=gd3bj scf=xqc

CID_61260151_JID_6234_neutraal

0 1
C          2.59200       -0.49000       -0.02200
C          1.32063       -0.55864       -0.77935
C          0.21249       -1.39066       -0.69640
C         -0.70738       -0.83839       -1.63250
N         -0.18366        0.19644       -2.30065
N          1.03193        0.34809       -1.76195
C         -2.09417       -1.28734       -1.91648
C         -0.03018       -2.50637        0.20068
O         -1.10464       -2.65400        0.77881
N          0.96204       -3.43074        0.40844
C          2.02567       -3.80714       -0.52029
C          3.33901       -4.14937        0.21638
O          3.17610       -5.39427        0.90394
C          4.20472       -5.60729        1.86224
O          4.47249       -4.14616       -0.65480
C          4.42320       -5.12979       -1.67887
H          2.50007       -0.97873        0.95247
H          3.39883       -0.97468       -0.58004
H          2.88251        0.55022        0.15984
H          1.60957        1.11153       -2.09857
H         -2.12140       -2.36764       -2.09079
H         -2.74870       -1.05500       -1.07041
H         -2.50159       -0.79406       -2.80515
H          0.65425       -4.16882        1.03131
H          1.65071       -4.68992       -1.05171
H          2.19055       -3.03626       -1.27500
H          3.51981       -3.36219        0.95906
H          5.18736       -5.63506        1.38230
H          4.18096       -4.82809        2.63021
H          4.02788       -6.57277        2.34395
H          4.30786       -6.13356       -1.26044
H          3.61762       -4.91769       -2.38687
H          5.36977       -5.09430       -2.22560

--Link1--
%chk=JID_6234.chk
%mem=8GB
%nprocshared=4
# B3LYP/6-311++G(d,p) empiricaldispersion=gd3bj scf=xqc pop=npa geom=check

CID_61260151_JID_6234_Energie_neutraal

0 1

--Link1--
%chk=JID_6234.chk
%mem=8GB
%nprocshared=4
# B3LYP/6-311++G(d,p) empiricaldispersion=gd3bj scf=xqc pop=npa geom=check

CID_61260151_JID_6234_Energie_kation

1 2

--Link1--
%chk=JID_6234.chk
%mem=8GB
%nprocshared=4
# B3LYP/6-311++G(d,p) empiricaldispersion=gd3bj scf=xqc pop=npa geom=check

CID_61260151_JID_6234_Energie_anion

-1 2
