%chk=JID_10314.chk
%mem=8GB
%nprocshared=4
# opt freq B3LYP/6-31G(d) empiricaldispersion=gd3bj scf=xqc

CID_91805493_JID_10314_neutraal

0 1
C          0.93970        0.05856       -0.05417
C          0.36504       -1.00520       -0.98138
C          0.86754       -2.41913       -0.79520
C          0.48206       -3.38724       -1.73517
C          0.90547       -4.71416       -1.61997
C          1.72456       -5.11127       -0.55548
C          2.10202       -4.14905        0.39049
C          1.67718       -2.82079        0.27311
C          2.19566       -6.53950       -0.43783
C          1.21331       -7.24373        0.43555
C          1.30244       -7.55509        1.78519
N          0.13787       -8.24846        2.12119
N         -0.67141       -8.39874        1.02882
C         -0.02393       -7.79153        0.03929
C         -0.23997       -8.78229        3.38040
O          0.47144       -8.66596        4.36997
O         -1.44090       -9.41833        3.30034
C         -1.90776      -10.01584        4.51512
C         -1.34348      -11.41703        4.65886
C          2.37363       -7.26315        2.77500
H          0.68275       -0.14223        0.99111
H          0.53193        1.04128       -0.31290
H          2.03010        0.11394       -0.13831
H         -0.72567       -1.01324       -0.86378
H          0.58014       -0.69992       -2.01341
H         -0.15633       -3.10944       -2.57181
H          0.58966       -5.43455       -2.37104
H          2.73356       -4.42587        1.23150
H          1.99469       -2.11351        1.03449
H          2.24290       -7.01240       -1.42612
H          3.21008       -6.57713       -0.02618
H         -0.47813       -7.77493       -0.94378
H         -1.66266       -9.39504        5.38458
H         -2.99975      -10.06370        4.45118
H         -0.25117      -11.39548        4.72691
H         -1.73943      -11.90508        5.55388
H         -1.59592      -12.02491        3.78378
H          3.20826       -6.72648        2.31469
H          1.99094       -6.63652        3.58680
H          2.77683       -8.18941        3.19632

--Link1--
%chk=JID_10314.chk
%mem=8GB
%nprocshared=4
# B3LYP/6-311++G(d,p) empiricaldispersion=gd3bj scf=xqc pop=npa geom=check

CID_91805493_JID_10314_Energie_neutraal

0 1

--Link1--
%chk=JID_10314.chk
%mem=8GB
%nprocshared=4
# B3LYP/6-311++G(d,p) empiricaldispersion=gd3bj scf=xqc pop=npa geom=check

CID_91805493_JID_10314_Energie_kation

1 2

--Link1--
%chk=JID_10314.chk
%mem=8GB
%nprocshared=4
# B3LYP/6-311++G(d,p) empiricaldispersion=gd3bj scf=xqc pop=npa geom=check

CID_91805493_JID_10314_Energie_anion

-1 2
