%chk=JID_8452.chk
%mem=8GB
%nprocshared=4
# opt freq B3LYP/6-31G(d) empiricaldispersion=gd3bj scf=xqc

CID_114183351_JID_8452_neutraal

0 1
C         -2.62700        0.29600        0.15200
C         -2.11170       -0.58323       -0.98057
C         -0.73525       -0.02875       -1.31484
C         -0.17194        0.44281        0.03899
C         -1.41959        1.06784        0.69349
C          0.94875        1.48047       -0.13318
C          2.20516        0.87383       -0.75610
C          2.74709       -0.31662        0.05487
C          1.64393       -1.34807        0.33180
C          0.36767       -0.72075        0.89864
N          3.87762       -0.86211       -0.70423
C          4.74657       -1.80606        0.00255
C          4.38034       -3.29692       -0.07321
C          4.32746       -3.85670       -1.44813
N          3.46168       -3.42223       -2.37702
O          3.71583       -4.26001       -3.46503
C          4.69019       -5.11646       -3.06644
N          5.10411       -4.91916       -1.83865
H         -3.38807        0.99539       -0.21154
H         -3.09247       -0.31419        0.93339
H         -2.78012       -0.57207       -1.84683
H         -2.03289       -1.62288       -0.64234
H         -0.84713        0.82159       -1.99982
H         -0.11650       -0.77505       -1.82030
H         -1.38444        1.03655        1.78802
H         -1.52001        2.12267        0.40836
H          1.20480        1.91262        0.84324
H          0.60727        2.31377       -0.75976
H          2.97484        1.65338       -0.82735
H          1.98248        0.56483       -1.78588
H          3.11105        0.07834        1.01257
H          1.40318       -1.90446       -0.58151
H          1.99823       -2.08056        1.06402
H          0.58915       -0.34873        1.90845
H         -0.38687       -1.50541        1.02684
H          3.54544       -1.28175       -1.57804
H          5.74609       -1.68924       -0.43600
H          4.85193       -1.50977        1.05334
H          5.13511       -3.85379        0.49732
H          3.42886       -3.49697        0.42572
H          5.01137       -5.85679       -3.78205

--Link1--
%chk=JID_8452.chk
%mem=8GB
%nprocshared=4
# B3LYP/6-311++G(d,p) empiricaldispersion=gd3bj scf=xqc pop=npa geom=check

CID_114183351_JID_8452_Energie_neutraal

0 1

--Link1--
%chk=JID_8452.chk
%mem=8GB
%nprocshared=4
# B3LYP/6-311++G(d,p) empiricaldispersion=gd3bj scf=xqc pop=npa geom=check

CID_114183351_JID_8452_Energie_kation

1 2

--Link1--
%chk=JID_8452.chk
%mem=8GB
%nprocshared=4
# B3LYP/6-311++G(d,p) empiricaldispersion=gd3bj scf=xqc pop=npa geom=check

CID_114183351_JID_8452_Energie_anion

-1 2
