%chk=JID_10529.chk
%mem=8GB
%nprocshared=4
# opt freq B3LYP/6-31G(d) empiricaldispersion=gd3bj scf=xqc

CID_80735373_JID_10529_neutraal

0 1
C          1.06671        0.07198        0.01919
C          0.15157        0.34846        1.21308
C         -0.36003        1.79390        1.26930
C         -1.59149        2.11249        0.41049
C         -2.67825        1.03155        0.52652
C         -2.19293       -0.42373        0.40925
C         -0.99281       -0.66762        1.33642
N         -1.87951       -0.74288       -0.98127
C         -1.85943       -2.03981       -1.49306
C         -1.57619       -2.20138       -2.85667
C         -1.46847       -3.46333       -3.45101
C         -1.64898       -4.59453       -2.66523
C         -1.84276       -4.47571       -1.28601
C         -1.98413       -3.19982       -0.72366
N         -2.11921       -5.61664       -0.51440
O         -1.23678       -3.43432       -4.79337
C         -0.56710       -4.49407       -5.48519
C          0.71073       -5.00066       -4.81962
C         -1.52192       -5.59989       -5.92154
C         -1.23888        2.45990       -1.03615
H          0.55935        0.14100       -0.94220
H          1.49282       -0.93479        0.09194
H          1.90192        0.78054        0.00509
H          0.78971        0.21021        2.09785
H         -0.64059        1.99184        2.31390
H          0.45351        2.49581        1.04807
H         -2.02662        3.03499        0.82168
H         -3.47928        1.22563       -0.19820
H         -3.14014        1.14084        1.51805
H         -3.03043       -1.05385        0.73520
H         -0.59193       -1.67967        1.21344
H         -1.36417       -0.62060        2.36984
H         -2.26270       -0.08683       -1.65776
H         -1.42888       -1.32255       -3.48076
H         -1.64063       -5.58473       -3.09821
H         -2.20644       -3.13100        0.33540
H         -1.69479       -6.46467       -0.87656
H         -1.93282       -5.48859        0.47553
H         -0.23461       -4.01415       -6.41526
H          0.50805       -5.63164       -3.95047
H          1.29746       -5.60023       -5.52357
H          1.32794       -4.16251       -4.47932
H         -2.41276       -5.17099       -6.39263
H         -1.03621       -6.26840       -6.63989
H         -1.86834       -6.21153       -5.08637
H         -2.13455        2.77770       -1.58110
H         -0.52543        3.29063       -1.06731
H         -0.79941        1.62850       -1.58609

--Link1--
%chk=JID_10529.chk
%mem=8GB
%nprocshared=4
# B3LYP/6-311++G(d,p) empiricaldispersion=gd3bj scf=xqc pop=npa geom=check

CID_80735373_JID_10529_Energie_neutraal

0 1

--Link1--
%chk=JID_10529.chk
%mem=8GB
%nprocshared=4
# B3LYP/6-311++G(d,p) empiricaldispersion=gd3bj scf=xqc pop=npa geom=check

CID_80735373_JID_10529_Energie_kation

1 2

--Link1--
%chk=JID_10529.chk
%mem=8GB
%nprocshared=4
# B3LYP/6-311++G(d,p) empiricaldispersion=gd3bj scf=xqc pop=npa geom=check

CID_80735373_JID_10529_Energie_anion

-1 2
