%chk=JID_9850.chk
%mem=8GB
%nprocshared=4
# opt freq B3LYP/6-31G(d) empiricaldispersion=gd3bj scf=xqc

CID_10905256_JID_9850_neutraal

0 1
C          2.51500        0.00400        0.06500
C          1.26606       -0.13140        0.88765
C          0.26705        0.76605        0.82256
C         -0.96954        0.69897        1.67577
C         -0.79720       -0.19815        2.91555
C         -0.14436       -1.52090        2.49224
C          1.20763       -1.33394        1.79341
C         -0.10262        0.59667        4.03187
O         -0.45218        1.74658        4.30794
C          0.98248       -0.03967        4.82584
C          2.00533        0.71828        5.24536
C          3.14984        0.17612        5.94224
C          4.20132        0.93220        6.29451
C          5.40276        0.40531        6.95589
C          6.65478        0.91364        6.58556
C          7.82058        0.45280        7.20192
C          7.74459       -0.51259        8.20335
C          6.50372       -1.01294        8.59274
C          5.33745       -0.55262        7.97578
H          3.39294        0.06540        0.71623
H          2.63064       -0.86124       -0.59564
H          2.50044        0.90252       -0.56076
H          0.33340        1.61103        0.14011
H         -1.25307        1.71743        1.96486
H         -1.78807        0.31398        1.05463
H         -1.79344       -0.43017        3.31618
H         -0.03377       -2.20628        3.33947
H         -0.82445       -2.02789        1.79314
H          1.42369       -2.24029        1.21435
H          2.00428       -1.24672        2.54065
H          0.94553       -1.10697        4.99006
H          2.00513        1.78801        5.03587
H          3.15003       -0.89206        6.14761
H          4.22183        1.99466        6.06120
H          6.73417        1.66689        5.80478
H          8.78651        0.84906        6.89990
H          8.65126       -0.87041        8.68409
H          6.44164       -1.75810        9.38147
H          4.37892       -0.94239        8.30898

--Link1--
%chk=JID_9850.chk
%mem=8GB
%nprocshared=4
# B3LYP/6-311++G(d,p) empiricaldispersion=gd3bj scf=xqc pop=npa geom=check

CID_10905256_JID_9850_Energie_neutraal

0 1

--Link1--
%chk=JID_9850.chk
%mem=8GB
%nprocshared=4
# B3LYP/6-311++G(d,p) empiricaldispersion=gd3bj scf=xqc pop=npa geom=check

CID_10905256_JID_9850_Energie_kation

1 2

--Link1--
%chk=JID_9850.chk
%mem=8GB
%nprocshared=4
# B3LYP/6-311++G(d,p) empiricaldispersion=gd3bj scf=xqc pop=npa geom=check

CID_10905256_JID_9850_Energie_anion

-1 2
