%chk=JID_10304.chk
%mem=8GB
%nprocshared=4
# opt freq B3LYP/6-31G(d) empiricaldispersion=gd3bj scf=xqc

CID_88708578_JID_10304_neutraal

0 1
C          0.94367        0.01194        0.08176
C          0.29350       -0.14612       -1.99353
C          0.70187       -1.16937       -3.31847
C         -0.29071       -2.30218       -3.65657
C         -1.73725       -1.89925       -3.97551
C         -1.89294       -0.82482       -5.05097
N         -1.33003       -1.22548       -6.31997
C         -1.96760       -2.03602       -7.21180
O         -1.42855       -2.47150       -8.21901
C          1.73249        1.29892       -1.36388
C          2.30417       -0.41907       -1.42167
C          1.18024       -1.76693       -0.95279
C         -0.51777       -1.38055       -0.47732
C         -1.07651        0.32695       -0.39915
C          0.03075        1.66610       -0.86736
C         -2.45681        0.50761        0.04341
O         -2.95996        1.62033        0.10732
C         -3.21768       -0.72625        0.38697
C         -2.69847       -1.96469        0.32676
N         -1.42562       -2.34175       -0.02403
H          0.89309       -0.85480        0.81458
H          0.48441        0.74402        0.81648
H          2.00449        0.29200        0.37899
H         -0.80251       -0.23592       -2.20307
H          0.37437        0.77434       -2.64248
H          0.73660       -0.50127       -4.19220
H          1.71550       -1.58633       -3.29926
H          0.11170       -2.83627       -4.52758
H         -0.30766       -3.04249       -2.84985
H         -2.27258       -2.80331       -4.29404
H         -2.24339       -1.56331       -3.06457
H         -2.95969       -0.62244       -5.20066
H         -1.41597        0.11381       -4.75445
H         -0.35297       -1.04666       -6.52021
H         -3.01445       -2.25707       -6.94711
H          2.40968        2.10824       -1.62497
H          3.33409       -0.63894       -1.69397
H          1.53651       -2.79291       -0.94015
H         -0.32191        2.69304       -0.81872
H         -4.24524       -0.56193        0.69072
H         -3.32471       -2.81610        0.58548
H         -1.22673       -3.31889       -0.20152

--Link1--
%chk=JID_10304.chk
%mem=8GB
%nprocshared=4
# B3LYP/6-311++G(d,p) empiricaldispersion=gd3bj scf=xqc pop=npa geom=check

CID_88708578_JID_10304_Energie_neutraal

0 1

--Link1--
%chk=JID_10304.chk
%mem=8GB
%nprocshared=4
# B3LYP/6-311++G(d,p) empiricaldispersion=gd3bj scf=xqc pop=npa geom=check

CID_88708578_JID_10304_Energie_kation

1 2

--Link1--
%chk=JID_10304.chk
%mem=8GB
%nprocshared=4
# B3LYP/6-311++G(d,p) empiricaldispersion=gd3bj scf=xqc pop=npa geom=check

CID_88708578_JID_10304_Energie_anion

-1 2
