%chk=JID_1202.chk
%mem=8GB
%nprocshared=4
# opt freq B3LYP/6-31G(d) empiricaldispersion=gd3bj scf=xqc

CID_142099805_JID_1202_neutraal

0 1
C          0.90491       -0.03091       -0.00172
C          0.82227        1.25498        0.78908
C          1.65247       -1.09603        3.96859
C          0.45917       -1.22552        3.98165
C          1.27811       -0.41832       -4.16730
C          0.57740        0.89726       -3.83475
C         -0.85319        1.05391       -4.33760
C         -1.87754        0.35551       -3.44520
C         -1.95627       -1.15630       -3.61999
C         -0.65446       -1.91014       -3.36527
C          0.41027       -1.64588       -4.42300
H          0.02302       -0.13942       -0.63731
H          0.95066       -0.89408        0.66848
H          1.79678       -0.03877       -0.63487
H          0.79305        2.11762        0.11671
H         -0.08173        1.26878        1.40538
H          1.68980        1.35932        1.44721
H          2.71181       -0.98038        3.95470
H         -0.60034       -1.34000        3.99109
H          1.98324       -0.64230       -3.35602
H          1.90156       -0.26418       -5.05762
H          0.59909        1.05469       -2.75020
H          1.18467        1.71047       -4.25352
H         -0.94681        0.72856       -5.37964
H         -1.08981        2.12575       -4.32643
H         -2.86827        0.76878       -3.67304
H         -1.68438        0.59573       -2.39259
H         -2.32146       -1.38633       -4.62870
H         -2.71636       -1.53854       -2.92693
H         -0.89085       -2.98178       -3.38777
H         -0.27060       -1.70116       -2.36180
H         -0.04978       -1.57800       -5.41622
H          1.07939       -2.51513       -4.46384

--Link1--
%chk=JID_1202.chk
%mem=8GB
%nprocshared=4
# B3LYP/6-311++G(d,p) empiricaldispersion=gd3bj scf=xqc pop=npa geom=check

CID_142099805_JID_1202_Energie_neutraal

0 1

--Link1--
%chk=JID_1202.chk
%mem=8GB
%nprocshared=4
# B3LYP/6-311++G(d,p) empiricaldispersion=gd3bj scf=xqc pop=npa geom=check

CID_142099805_JID_1202_Energie_kation

1 2

--Link1--
%chk=JID_1202.chk
%mem=8GB
%nprocshared=4
# B3LYP/6-311++G(d,p) empiricaldispersion=gd3bj scf=xqc pop=npa geom=check

CID_142099805_JID_1202_Energie_anion

-1 2
