%chk=JID_8548.chk
%mem=8GB
%nprocshared=4
# opt freq B3LYP/6-31G(d) empiricaldispersion=gd3bj scf=xqc

CID_61507643_JID_8548_neutraal

0 1
C         -2.55700       -0.42200       -0.01100
C         -1.13422       -0.02269        0.13222
C         -0.04561       -0.86451        0.25106
S          1.39543        0.04917        0.39842
C          0.47422        1.49661        0.29443
N         -0.82681        1.32780        0.15298
C          1.15077        2.84634        0.34440
N          1.10503        3.57073       -0.93014
C          1.47234        4.91571       -0.98555
C          1.10694        5.66210       -2.11278
C          1.49442        7.00672       -2.27399
C          2.27135        7.63780       -1.28656
C          2.71386        6.86250       -0.20893
C          2.31911        5.52658       -0.05982
N          2.82627        8.92117       -1.44625
C          1.01973        7.67833       -3.51238
O          0.55335        7.12048       -4.49035
O          1.07456        9.02540       -3.46420
H         -3.14174       -0.04556        0.83399
H         -2.97527       -0.00815       -0.93374
H         -2.66585       -1.51056       -0.04471
H         -0.02771       -1.94492        0.25765
H          0.63783        3.43243        1.11836
H          2.19438        2.72705        0.65962
H          0.22728        3.38590       -1.41638
H          0.51023        5.18796       -2.89103
H          3.39465        7.28930        0.52398
H          2.71006        4.97811        0.79174
H          2.27075        9.48721       -2.09450
H          3.01109        9.40491       -0.57388
H          0.70900        9.28698       -4.33660

--Link1--
%chk=JID_8548.chk
%mem=8GB
%nprocshared=4
# B3LYP/6-311++G(d,p) empiricaldispersion=gd3bj scf=xqc pop=npa geom=check

CID_61507643_JID_8548_Energie_neutraal

0 1

--Link1--
%chk=JID_8548.chk
%mem=8GB
%nprocshared=4
# B3LYP/6-311++G(d,p) empiricaldispersion=gd3bj scf=xqc pop=npa geom=check

CID_61507643_JID_8548_Energie_kation

1 2

--Link1--
%chk=JID_8548.chk
%mem=8GB
%nprocshared=4
# B3LYP/6-311++G(d,p) empiricaldispersion=gd3bj scf=xqc pop=npa geom=check

CID_61507643_JID_8548_Energie_anion

-1 2
