%chk=JID_9767.chk
%mem=8GB
%nprocshared=4
# opt freq B3LYP/6-31G(d) empiricaldispersion=gd3bj scf=xqc

CID_63193737_JID_9767_neutraal

0 1
C          0.99069        0.09724       -0.02140
C          0.53548       -1.22878        0.60128
C          1.38737       -1.46055        1.86824
C         -0.97195       -1.11083        0.99522
N         -1.54047       -2.38539        1.45878
N          0.74211       -2.41157       -0.27932
C          0.09930       -2.57932       -1.48061
O         -0.74563       -3.46960       -1.57421
C          0.61651       -1.80429       -2.67276
C         -0.48410       -1.48676       -3.68111
C         -1.43162       -0.43185       -3.19900
C         -2.70023       -0.64544       -2.69669
N         -3.23582        0.56352       -2.34724
C         -2.33518        1.57226       -2.59645
C         -2.43924        2.95040       -2.37320
C         -1.34937        3.74915       -2.73159
C         -0.20592        3.19086       -3.29730
C         -0.12008        1.81139       -3.51663
C         -1.20146        0.98122       -3.15491
H          0.96520        0.90792        0.71628
H          0.33841        0.40317       -0.83970
H          2.01490        0.02722       -0.40355
H          1.26221       -0.64498        2.58923
H          1.11961       -2.39608        2.37234
H          2.45232       -1.52612        1.61539
H         -1.09415       -0.35964        1.78421
H         -1.56157       -0.77223        0.13648
H         -2.50954       -2.23062        1.73665
H         -1.60252       -3.01505        0.65017
H          0.49464       -3.22383        0.27781
H          1.15614       -0.90528       -2.37734
H          1.35647       -2.45583       -3.15535
H         -0.02071       -1.14012       -4.61344
H         -1.04349       -2.39486       -3.93851
H         -3.26006       -1.56125       -2.55454
H         -4.15634        0.70087       -1.95404
H         -3.33013        3.38967       -1.93669
H         -1.39746        4.82344       -2.56843
H          0.62957        3.83043       -3.57090
H          0.77844        1.38651       -3.95378

--Link1--
%chk=JID_9767.chk
%mem=8GB
%nprocshared=4
# B3LYP/6-311++G(d,p) empiricaldispersion=gd3bj scf=xqc pop=npa geom=check

CID_63193737_JID_9767_Energie_neutraal

0 1

--Link1--
%chk=JID_9767.chk
%mem=8GB
%nprocshared=4
# B3LYP/6-311++G(d,p) empiricaldispersion=gd3bj scf=xqc pop=npa geom=check

CID_63193737_JID_9767_Energie_kation

1 2

--Link1--
%chk=JID_9767.chk
%mem=8GB
%nprocshared=4
# B3LYP/6-311++G(d,p) empiricaldispersion=gd3bj scf=xqc pop=npa geom=check

CID_63193737_JID_9767_Energie_anion

-1 2
