%chk=JID_8766.chk
%mem=8GB
%nprocshared=4
# opt freq B3LYP/6-31G(d) empiricaldispersion=gd3bj scf=xqc

CID_149660219_JID_8766_neutraal

0 1
C          1.08702       -0.01464       -0.04704
C          0.03677       -0.78460        0.74290
C          0.57403       -2.09761        1.30350
C          0.93155       -2.08194        2.78068
O          0.59699       -3.02502        3.50542
C          1.79833       -0.97703        3.34526
C          3.25281       -1.41418        3.48075
C          4.00021       -1.37841        2.18363
C          4.57727       -0.26220        1.60926
N          5.14056       -0.63064        0.41823
C          4.95109       -1.97518        0.19993
C          4.25797       -2.47710        1.30184
C          3.94612       -3.85323        1.33169
C          4.32798       -4.67074        0.25746
C          5.01476       -4.13168       -0.83362
C          5.34158       -2.77276       -0.88136
C          4.00637       -6.06791        0.27672
N          3.75038       -7.20008        0.28043
H          1.90285        0.33073        0.58944
H          0.63313        0.86793       -0.50944
H          1.51019       -0.63119       -0.84669
H         -0.37868       -0.15024        1.53354
H         -0.78735       -1.01179        0.05515
H         -0.21770       -2.85113        1.19633
H          1.42868       -2.46341        0.73030
H          1.69371       -0.05698        2.76765
H          1.39665       -0.75126        4.34147
H          3.75618       -0.73916        4.18503
H          3.31513       -2.41687        3.92026
H          4.62518        0.76603        1.94400
H          5.62495       -0.00867       -0.21476
H          3.40414       -4.27087        2.17780
H          5.30647       -4.77167       -1.66549
H          5.87781       -2.35862       -1.72967

--Link1--
%chk=JID_8766.chk
%mem=8GB
%nprocshared=4
# B3LYP/6-311++G(d,p) empiricaldispersion=gd3bj scf=xqc pop=npa geom=check

CID_149660219_JID_8766_Energie_neutraal

0 1

--Link1--
%chk=JID_8766.chk
%mem=8GB
%nprocshared=4
# B3LYP/6-311++G(d,p) empiricaldispersion=gd3bj scf=xqc pop=npa geom=check

CID_149660219_JID_8766_Energie_kation

1 2

--Link1--
%chk=JID_8766.chk
%mem=8GB
%nprocshared=4
# B3LYP/6-311++G(d,p) empiricaldispersion=gd3bj scf=xqc pop=npa geom=check

CID_149660219_JID_8766_Energie_anion

-1 2
