%chk=JID_5964.chk
%mem=8GB
%nprocshared=4
# opt freq B3LYP/6-31G(d) empiricaldispersion=gd3bj scf=xqc

CID_83472480_JID_5964_neutraal

0 1
C          1.07468        0.05600       -0.03588
C          0.61378        0.29534       -1.46157
C          1.02655       -0.77841       -2.47712
N          0.35997       -2.07504       -2.28488
C          1.06247       -2.95502       -1.33627
C          1.75472       -4.01823       -2.16791
C          0.78305       -4.22636       -3.31571
C          0.25832       -2.81214       -3.56280
C          1.41428       -4.82057       -4.57836
N          1.91351       -6.17960       -4.35660
C          2.72063       -6.65396       -5.47836
C          3.23646       -8.07184       -5.23725
C          3.68117       -8.54245       -6.61988
C          2.88579       -7.70918       -7.62670
C          1.96897       -6.81481       -6.79826
H          0.54802       -0.78793        0.41871
H          0.86344        0.93818        0.57760
H          2.15191       -0.13168        0.00708
H         -0.47625        0.41689       -1.47387
H          1.03363        1.25218       -1.79703
H          0.73609       -0.36781       -3.45390
H          2.11825       -0.88926       -2.50596
H          0.31106       -3.42573       -0.69041
H          1.77855       -2.44946       -0.68286
H          2.72073       -3.64585       -2.53032
H          1.92944       -4.93421       -1.59519
H         -0.04566       -4.86295       -2.97533
H          0.83845       -2.33111       -4.36050
H         -0.78593       -2.83940       -3.89342
H          0.65915       -4.83108       -5.37256
H          2.23480       -4.17093       -4.90911
H          2.47681       -6.21047       -3.50900
H          3.58330       -5.98857       -5.62210
H          4.05410       -8.10416       -4.51001
H          2.43445       -8.72479       -4.86945
H          3.50346       -9.61477       -6.74962
H          4.75433       -8.36763       -6.75804
H          2.31598       -8.33623       -8.31940
H          3.57244       -7.09807       -8.22433
H          1.00505       -7.31563       -6.64242
H          1.77690       -5.86010       -7.29798

--Link1--
%chk=JID_5964.chk
%mem=8GB
%nprocshared=4
# B3LYP/6-311++G(d,p) empiricaldispersion=gd3bj scf=xqc pop=npa geom=check

CID_83472480_JID_5964_Energie_neutraal

0 1

--Link1--
%chk=JID_5964.chk
%mem=8GB
%nprocshared=4
# B3LYP/6-311++G(d,p) empiricaldispersion=gd3bj scf=xqc pop=npa geom=check

CID_83472480_JID_5964_Energie_kation

1 2

--Link1--
%chk=JID_5964.chk
%mem=8GB
%nprocshared=4
# B3LYP/6-311++G(d,p) empiricaldispersion=gd3bj scf=xqc pop=npa geom=check

CID_83472480_JID_5964_Energie_anion

-1 2
