%chk=JID_9874.chk
%mem=8GB
%nprocshared=4
# opt freq B3LYP/6-31G(d) empiricaldispersion=gd3bj scf=xqc

CID_117402786_JID_9874_neutraal

0 1
C          0.93882        0.07186       -0.03305
O          0.01623        1.00846       -0.57274
C          0.44309        2.28545       -0.78794
C         -0.50289        3.20145       -1.27071
C         -0.08123        4.53468       -1.50351
C          1.23142        4.99614       -1.27535
C          2.13551        4.03573       -0.80053
C          1.75521        2.71125       -0.55970
C          1.65675        6.48291       -1.55637
C          0.68591        7.65941       -1.26380
C          1.89916        8.51622       -0.84937
C          2.68421        7.20516       -0.64261
N          2.11818        6.61269       -2.94566
C         -1.96842        2.87086       -1.56773
C         -2.17794        1.92354       -2.76499
C         -2.42773        0.45849       -2.42221
C         -3.45560        0.29620       -1.31238
C         -3.04870        1.05049       -0.05540
C         -2.81300        2.53352       -0.32342
H          0.41170       -0.87858        0.09472
H          1.29451        0.38900        0.95273
H          1.77264       -0.10144       -0.72106
H         -0.80383        5.25853       -1.88202
H          3.16824        4.32452       -0.61234
H          2.51969        2.03444       -0.19264
H          0.09785        8.04755       -2.10155
H         -0.00008        7.46874       -0.42850
H          1.76080        9.13013        0.04443
H          2.29280        9.14744       -1.65407
H          2.66520        6.86317        0.40015
H          3.72764        7.22243       -0.97312
H          1.40120        6.35276       -3.62257
H          2.90898        6.00429       -3.15520
H         -2.39439        3.82475       -1.91632
H         -3.06715        2.27499       -3.30773
H         -1.34733        1.99981       -3.47737
H         -1.49333       -0.03512       -2.14172
H         -2.78202       -0.06262       -3.31993
H         -3.57854       -0.76743       -1.07855
H         -4.43075        0.65990       -1.65913
H         -2.15766        0.59297        0.38274
H         -3.83804        0.94531        0.69885
H         -2.39936        3.00986        0.57392
H         -3.80396        2.98685       -0.46932

--Link1--
%chk=JID_9874.chk
%mem=8GB
%nprocshared=4
# B3LYP/6-311++G(d,p) empiricaldispersion=gd3bj scf=xqc pop=npa geom=check

CID_117402786_JID_9874_Energie_neutraal

0 1

--Link1--
%chk=JID_9874.chk
%mem=8GB
%nprocshared=4
# B3LYP/6-311++G(d,p) empiricaldispersion=gd3bj scf=xqc pop=npa geom=check

CID_117402786_JID_9874_Energie_kation

1 2

--Link1--
%chk=JID_9874.chk
%mem=8GB
%nprocshared=4
# B3LYP/6-311++G(d,p) empiricaldispersion=gd3bj scf=xqc pop=npa geom=check

CID_117402786_JID_9874_Energie_anion

-1 2
