%chk=JID_10280.chk
%mem=8GB
%nprocshared=4
# opt freq B3LYP/6-31G(d) empiricaldispersion=gd3bj scf=xqc

CID_56787472_JID_10280_neutraal

0 1
C          1.05880        0.08057       -0.00707
C          0.48180        1.49290        0.00629
C          1.55594        2.60129        0.11668
C          2.41198        2.50496        1.38986
C          1.62999        2.90083        2.64561
N          1.09404        4.25691        2.50232
C          0.19659        4.37877        1.34721
C          0.93401        4.01107        0.05570
C          0.46844        4.75056        3.75239
C         -0.78197        4.03811        4.24746
N         -0.62409        2.96228        5.01810
C         -1.75203        2.39266        5.39963
N         -2.96601        2.78999        5.05633
C         -3.04365        3.87189        4.28426
N         -1.96392        4.52251        3.85786
N         -4.30316        4.32318        3.87963
C         -4.33714        5.70079        3.41415
C         -5.40270        3.89087        4.72816
N         -1.65422        1.26141        6.18763
O         -0.25366        1.66736       -1.20745
H          1.82063       -0.02443       -0.78719
H          0.27368       -0.64895       -0.23525
H          1.50085       -0.18934        0.95555
H         -0.24262        1.56458        0.82322
H          2.21941        2.50627       -0.75383
H          2.83264        1.50221        1.51373
H          3.27409        3.17813        1.28467
H          0.83785        2.16727        2.83404
H          2.31866        2.86203        3.49831
H         -0.14958        5.41547        1.25521
H         -0.69356        3.74886        1.45744
H          1.73605        4.74237       -0.11430
H          0.25270        4.10509       -0.79730
H          1.21650        4.72645        4.55564
H          0.22834        5.81435        3.62473
H         -5.34733        5.96521        3.08135
H         -4.05511        6.39932        4.21058
H         -3.67910        5.85247        2.55069
H         -5.48235        2.79822        4.76246
H         -5.29657        4.27761        5.74843
H         -6.35653        4.25639        4.33092
H         -0.76026        0.81544        6.03854
H         -2.48005        0.69165        6.06459
H          0.37236        1.59448       -1.94825

--Link1--
%chk=JID_10280.chk
%mem=8GB
%nprocshared=4
# B3LYP/6-311++G(d,p) empiricaldispersion=gd3bj scf=xqc pop=npa geom=check

CID_56787472_JID_10280_Energie_neutraal

0 1

--Link1--
%chk=JID_10280.chk
%mem=8GB
%nprocshared=4
# B3LYP/6-311++G(d,p) empiricaldispersion=gd3bj scf=xqc pop=npa geom=check

CID_56787472_JID_10280_Energie_kation

1 2

--Link1--
%chk=JID_10280.chk
%mem=8GB
%nprocshared=4
# B3LYP/6-311++G(d,p) empiricaldispersion=gd3bj scf=xqc pop=npa geom=check

CID_56787472_JID_10280_Energie_anion

-1 2
