%chk=JID_4360.chk
%mem=8GB
%nprocshared=4
# opt freq B3LYP/6-31G(d) empiricaldispersion=gd3bj scf=xqc

CID_43106833_JID_4360_neutraal

0 1
C         -1.50500        0.02200       -0.20100
C         -0.57288        1.21766       -0.03941
C          0.80838        0.92401       -0.61991
N          1.39594       -0.27750       -0.02909
C          0.53927       -1.46314       -0.23675
C         -0.85822       -1.23965        0.36151
C          1.14121       -2.71369        0.33090
N          1.21059       -3.91404       -0.20153
C          1.82828       -4.63169        0.79084
N          2.14400       -3.92905        1.88492
O          1.67919       -2.64614        1.58558
C          2.12541       -6.11776        0.67858
C          1.12873       -6.99871       -0.04977
C          2.44176       -6.69750       -0.68588
H         -2.45576        0.21537        0.30776
H         -1.73211       -0.12505       -1.26402
H         -1.00546        2.09364       -0.53573
H         -0.47977        1.46669        1.02537
H          0.74667        0.81668       -1.70968
H          1.46850        1.77507       -0.41970
H          2.30850       -0.45102       -0.45154
H          0.43623       -1.62313       -1.31905
H         -0.79561       -1.15731        1.45526
H         -1.50382       -2.10171        0.15128
H          2.63065       -6.54696        1.53644
H          0.96397       -7.99655        0.33960
H          0.24127       -6.53852       -0.47068
H          2.44960       -6.03293       -1.54304
H          3.17923       -7.48983       -0.73647

--Link1--
%chk=JID_4360.chk
%mem=8GB
%nprocshared=4
# B3LYP/6-311++G(d,p) empiricaldispersion=gd3bj scf=xqc pop=npa geom=check

CID_43106833_JID_4360_Energie_neutraal

0 1

--Link1--
%chk=JID_4360.chk
%mem=8GB
%nprocshared=4
# B3LYP/6-311++G(d,p) empiricaldispersion=gd3bj scf=xqc pop=npa geom=check

CID_43106833_JID_4360_Energie_kation

1 2

--Link1--
%chk=JID_4360.chk
%mem=8GB
%nprocshared=4
# B3LYP/6-311++G(d,p) empiricaldispersion=gd3bj scf=xqc pop=npa geom=check

CID_43106833_JID_4360_Energie_anion

-1 2
