%chk=JID_8037.chk
%mem=8GB
%nprocshared=4
# opt freq B3LYP/6-31G(d) empiricaldispersion=gd3bj scf=xqc

CID_82450457_JID_8037_neutraal

0 1
C          0.97589        0.06030        0.07605
C          0.90445        1.10054        1.18799
C          1.23395        2.51365        0.76575
C          0.51812        3.58884        1.31703
C          0.80994        4.94272        0.99754
C          1.85091        5.19676        0.08468
C          2.56366        4.13102       -0.44310
C          2.27813        2.80512       -0.10754
N          2.19649        6.43017       -0.30384
C          1.51933        7.49233        0.18776
C          1.95782        8.82945       -0.35266
C          1.50023       10.00480        0.50180
C          0.01595        9.87043        0.80219
C         -0.25425        8.59859        1.60524
C          0.45735        7.36862        1.08677
C          0.12055        6.06971        1.53489
C         -0.98579        5.87389        2.54925
O         -2.21400        5.55458        1.91021
H          0.35060        0.34765       -0.77583
H          0.62346       -0.90815        0.44596
H          2.00019       -0.07946       -0.28313
H         -0.11243        1.07425        1.59942
H          1.58367        0.81508        2.00008
H         -0.29167        3.35785        2.00681
H          3.37487        4.33916       -1.13759
H          2.88766        2.01722       -0.54161
H          1.54893        8.93249       -1.36554
H          3.05060        8.85055       -0.43865
H          1.69748       10.94485       -0.02526
H          2.06800       10.03391        1.44029
H         -0.33926       10.74253        1.36259
H         -0.54832        9.84292       -0.13877
H          0.06622        8.76250        2.64189
H         -1.33774        8.43252        1.60765
H         -0.73753        5.07998        3.26086
H         -1.14232        6.76280        3.16679
H         -2.05825        5.54050        0.94993

--Link1--
%chk=JID_8037.chk
%mem=8GB
%nprocshared=4
# B3LYP/6-311++G(d,p) empiricaldispersion=gd3bj scf=xqc pop=npa geom=check

CID_82450457_JID_8037_Energie_neutraal

0 1

--Link1--
%chk=JID_8037.chk
%mem=8GB
%nprocshared=4
# B3LYP/6-311++G(d,p) empiricaldispersion=gd3bj scf=xqc pop=npa geom=check

CID_82450457_JID_8037_Energie_kation

1 2

--Link1--
%chk=JID_8037.chk
%mem=8GB
%nprocshared=4
# B3LYP/6-311++G(d,p) empiricaldispersion=gd3bj scf=xqc pop=npa geom=check

CID_82450457_JID_8037_Energie_anion

-1 2
