%chk=JID_156.chk
%mem=8GB
%nprocshared=4
# opt freq B3LYP/6-31G(d) empiricaldispersion=gd3bj scf=xqc

CID_21867975_JID_156_neutraal

0 1
C         -1.99200       -1.43800        0.00100
C         -0.66803       -0.73179        0.00022
C          0.50390       -1.50961       -0.00041
C          1.76554       -0.91245       -0.00127
C          1.78197        0.47839       -0.00120
N          0.68063        1.26734       -0.00058
C         -0.53039        0.65951        0.00008
C         -1.71416        1.58178        0.00055
C          3.03649       -1.65428       -0.00185
C          3.18301       -2.98604       -0.00452
H         -2.07903       -2.06837       -0.89030
H         -2.07805       -2.06825        0.89247
H         -2.84281       -0.75224        0.00141
H          0.40720       -2.59180       -0.00016
H          2.71785        1.03139       -0.00171
H         -2.32373        1.42139       -0.89402
H         -2.32342        1.42099        0.89527
H         -1.39203        2.62861        0.00075
H          3.93936       -1.04522       -0.00004
H          4.17759       -3.42320       -0.00477
H          2.35066       -3.67963       -0.00665

--Link1--
%chk=JID_156.chk
%mem=8GB
%nprocshared=4
# B3LYP/6-311++G(d,p) empiricaldispersion=gd3bj scf=xqc pop=npa geom=check

CID_21867975_JID_156_Energie_neutraal

0 1

--Link1--
%chk=JID_156.chk
%mem=8GB
%nprocshared=4
# B3LYP/6-311++G(d,p) empiricaldispersion=gd3bj scf=xqc pop=npa geom=check

CID_21867975_JID_156_Energie_kation

1 2

--Link1--
%chk=JID_156.chk
%mem=8GB
%nprocshared=4
# B3LYP/6-311++G(d,p) empiricaldispersion=gd3bj scf=xqc pop=npa geom=check

CID_21867975_JID_156_Energie_anion

-1 2
