%chk=JID_5302.chk
%mem=8GB
%nprocshared=4
# opt freq B3LYP/6-31G(d) empiricaldispersion=gd3bj scf=xqc

CID_149191123_JID_5302_neutraal

0 1
C          1.02937        0.08652        0.04064
C          0.90088       -0.55728        1.41341
C          1.39908        0.32233        2.54428
C          0.51217        0.80457        3.43357
O          0.78494        1.59560        4.51309
C          2.88031        0.63581        2.58913
C          3.70810       -0.31191        3.46646
C          3.90837       -1.73265        2.92332
C          4.60173       -1.82237        1.55740
C          6.02876       -1.33136        1.57448
C          7.04188       -2.12405        2.13122
C          8.35996       -1.66693        2.16899
C          8.67836       -0.41220        1.65386
C          7.68004        0.38391        1.09605
C          6.36184       -0.07386        1.05347
H          0.54199        1.06678        0.01442
H          0.55379       -0.54687       -0.71550
H          2.07570        0.21554       -0.25170
H         -0.15587       -0.81041        1.56999
H          1.43478       -1.51172        1.41566
H         -0.55349        0.60355        3.38953
H          1.74477        1.71950        4.58890
H          3.29160        0.68584        1.57748
H          3.01688        1.65453        2.97515
H          4.69110        0.14506        3.63367
H          3.24367       -0.38554        4.45827
H          4.49060       -2.29846        3.66208
H          2.93931       -2.23932        2.86376
H          4.60593       -2.87103        1.23180
H          4.02730       -1.28941        0.79168
H          6.80815       -3.10476        2.53950
H          9.13787       -2.29018        2.60194
H          9.70430       -0.05546        1.68629
H          7.92802        1.36272        0.69395
H          5.59703        0.56125        0.61340

--Link1--
%chk=JID_5302.chk
%mem=8GB
%nprocshared=4
# B3LYP/6-311++G(d,p) empiricaldispersion=gd3bj scf=xqc pop=npa geom=check

CID_149191123_JID_5302_Energie_neutraal

0 1

--Link1--
%chk=JID_5302.chk
%mem=8GB
%nprocshared=4
# B3LYP/6-311++G(d,p) empiricaldispersion=gd3bj scf=xqc pop=npa geom=check

CID_149191123_JID_5302_Energie_kation

1 2

--Link1--
%chk=JID_5302.chk
%mem=8GB
%nprocshared=4
# B3LYP/6-311++G(d,p) empiricaldispersion=gd3bj scf=xqc pop=npa geom=check

CID_149191123_JID_5302_Energie_anion

-1 2
