%chk=JID_5859.chk
%mem=8GB
%nprocshared=4
# opt freq B3LYP/6-31G(d) empiricaldispersion=gd3bj scf=xqc

CID_63245664_JID_5859_neutraal

0 1
C          1.09129        0.00184       -0.04077
C          1.01784       -0.72282        1.29086
O          2.30977       -1.02173        1.81653
C          3.00890       -2.06709        1.13303
C          2.53735       -3.44290        1.56878
S          2.24879       -4.52108        0.17135
O          3.32677       -4.30816       -0.77430
O          1.96335       -5.84887        0.66913
N          0.80854       -3.90706       -0.49680
C         -0.41748       -4.21967        0.28864
C          0.56457       -4.09498       -1.97072
C          1.19563       -2.94265       -2.75295
C          0.94553       -5.46229       -2.54303
S         -0.19403       -6.64182       -2.87342
N          2.25543       -5.71009       -2.82781
H          1.71567        0.89714        0.04597
H          0.09192        0.30140       -0.36991
H          1.53371       -0.61768       -0.82244
H          0.52527       -0.06976        2.01914
H          0.41189       -1.62855        1.21524
H          2.97650       -1.90487        0.05336
H          4.06069       -1.95709        1.42150
H          3.33049       -3.93262        2.14630
H          1.64925       -3.42484        2.20307
H         -1.22381       -3.54058       -0.00796
H         -0.74100       -5.25049        0.12149
H         -0.25957       -4.06822        1.35860
H         -0.51678       -3.97750       -2.13815
H          2.26588       -2.83349       -2.55833
H          1.06699       -3.08569       -3.83140
H          0.71577       -1.99558       -2.48551
H          2.99279       -5.14510       -2.40065
H          2.52104       -6.64822       -3.10378

--Link1--
%chk=JID_5859.chk
%mem=8GB
%nprocshared=4
# B3LYP/6-311++G(d,p) empiricaldispersion=gd3bj scf=xqc pop=npa geom=check

CID_63245664_JID_5859_Energie_neutraal

0 1

--Link1--
%chk=JID_5859.chk
%mem=8GB
%nprocshared=4
# B3LYP/6-311++G(d,p) empiricaldispersion=gd3bj scf=xqc pop=npa geom=check

CID_63245664_JID_5859_Energie_kation

1 2

--Link1--
%chk=JID_5859.chk
%mem=8GB
%nprocshared=4
# B3LYP/6-311++G(d,p) empiricaldispersion=gd3bj scf=xqc pop=npa geom=check

CID_63245664_JID_5859_Energie_anion

-1 2
