%chk=JID_4296.chk
%mem=8GB
%nprocshared=4
# opt freq B3LYP/6-31G(d) empiricaldispersion=gd3bj scf=xqc

CID_88437015_JID_4296_neutraal

0 1
C          0.92409        0.01776        0.06262
C          0.26288        1.37759        0.25688
C          0.84155        2.41560       -0.65936
O          0.35081        2.81597       -1.70177
O          2.02629        2.89070       -0.23079
C          0.53014       -0.63706       -1.23588
C         -0.21529       -1.74175       -1.40519
C         -0.83534       -2.61505       -0.33550
C         -2.37299       -2.48447       -0.19330
C         -3.06237       -2.95744       -1.51643
O         -3.19267       -4.11657       -1.88494
O         -3.55279       -1.94869       -2.27327
N         -2.85130       -3.30328        0.91333
N         -2.79170       -1.13735        0.17872
H          0.66657       -0.61337        0.91783
H          2.01626        0.11848        0.07545
H         -0.81905        1.32973        0.08916
H          0.39967        1.72352        1.28844
H          2.28260        3.54455       -0.91458
H          0.90233       -0.14385       -2.13516
H         -0.39326       -2.06962       -2.42961
H         -0.58012       -3.65439       -0.58614
H         -0.36056       -2.42945        0.63478
H         -3.94461       -2.40144       -3.04943
H         -3.84471       -3.13786        1.03930
H         -2.75559       -4.28558        0.65352
H         -2.46190       -0.50717       -0.55453
H         -3.80494       -1.08612        0.11700

--Link1--
%chk=JID_4296.chk
%mem=8GB
%nprocshared=4
# B3LYP/6-311++G(d,p) empiricaldispersion=gd3bj scf=xqc pop=npa geom=check

CID_88437015_JID_4296_Energie_neutraal

0 1

--Link1--
%chk=JID_4296.chk
%mem=8GB
%nprocshared=4
# B3LYP/6-311++G(d,p) empiricaldispersion=gd3bj scf=xqc pop=npa geom=check

CID_88437015_JID_4296_Energie_kation

1 2

--Link1--
%chk=JID_4296.chk
%mem=8GB
%nprocshared=4
# B3LYP/6-311++G(d,p) empiricaldispersion=gd3bj scf=xqc pop=npa geom=check

CID_88437015_JID_4296_Energie_anion

-1 2
