%chk=JID_2134.chk
%mem=8GB
%nprocshared=4
# opt freq B3LYP/6-31G(d) empiricaldispersion=gd3bj scf=xqc

CID_151566646_JID_2134_neutraal

0 1
C          0.95291       -0.07922       -0.03882
C          0.54203       -0.33578        1.46728
N          1.20432        0.49165        2.41321
N         -0.85797       -0.21503        1.69409
N          0.86925       -1.68988        1.80378
C          0.40381        1.29675       -0.61218
N          0.69797        1.37441       -2.01560
N         -1.03891        1.28144       -0.61979
N          1.01492        2.36337        0.15140
N          0.58552        3.52112        0.00485
N          0.18400        4.57646       -0.13463
N          0.56611       -1.26999       -0.88601
H          2.05148       -0.04758       -0.07175
H          0.80052        0.66812        3.32645
H          1.91693        1.15892        2.12837
H         -1.38657       -0.88963        2.23417
H         -1.40507        0.36654        1.04959
H          0.96866       -2.32878        1.01151
H          1.32575       -1.96850        2.66334
H          0.42890        2.28281       -2.38899
H          1.70989        1.33023       -2.14901
H         -1.37449        2.18957       -0.94723
H         -1.28354        0.67648       -1.41195
H         -0.45578       -1.32459       -0.89804
H          0.79449       -1.01136       -1.85536

--Link1--
%chk=JID_2134.chk
%mem=8GB
%nprocshared=4
# B3LYP/6-311++G(d,p) empiricaldispersion=gd3bj scf=xqc pop=npa geom=check

CID_151566646_JID_2134_Energie_neutraal

0 1

--Link1--
%chk=JID_2134.chk
%mem=8GB
%nprocshared=4
# B3LYP/6-311++G(d,p) empiricaldispersion=gd3bj scf=xqc pop=npa geom=check

CID_151566646_JID_2134_Energie_kation

1 2

--Link1--
%chk=JID_2134.chk
%mem=8GB
%nprocshared=4
# B3LYP/6-311++G(d,p) empiricaldispersion=gd3bj scf=xqc pop=npa geom=check

CID_151566646_JID_2134_Energie_anion

-1 2
