%chk=JID_2444.chk
%mem=8GB
%nprocshared=4
# opt freq B3LYP/6-31G(d) empiricaldispersion=gd3bj scf=xqc

CID_114472568_JID_2444_neutraal

0 1
C          1.01664        0.07178        0.06761
C          0.61565       -0.46584        1.43716
C          1.10232        0.38385        2.62651
N          0.89288        1.83072        2.47408
C          1.26992        2.58157        3.67857
C          2.77983        2.68103        3.97244
C          3.58264        3.42981        2.92751
C          3.71848        4.76561        2.97795
C          4.28031        2.61125        1.87790
S         -1.16272       -0.89267        1.48163
O         -1.42143       -1.66307        2.74292
C         -1.88350        0.74863        1.66781
H          0.51680        1.01472       -0.17442
H          0.75833       -0.64268       -0.72227
H          2.09786        0.23923        0.02049
H          1.10455       -1.44402        1.53953
H          0.62264        0.03092        3.54755
H          2.17760        0.19879        2.73685
H          1.43174        2.18997        1.68702
H          0.86712        3.59595        3.56822
H          0.75954        2.15589        4.55146
H          2.89629        3.19339        4.93745
H          3.21121        1.68537        4.12969
H          4.31446        5.30713        2.24917
H          3.23753        5.35659        3.75219
H          4.93481        1.86947        2.34662
H          3.55992        2.08679        1.24524
H          4.90144        3.23112        1.22220
H         -1.66923        1.15192        2.65889
H         -1.52419        1.41950        0.88579
H         -2.96818        0.65197        1.56865

--Link1--
%chk=JID_2444.chk
%mem=8GB
%nprocshared=4
# B3LYP/6-311++G(d,p) empiricaldispersion=gd3bj scf=xqc pop=npa geom=check

CID_114472568_JID_2444_Energie_neutraal

0 1

--Link1--
%chk=JID_2444.chk
%mem=8GB
%nprocshared=4
# B3LYP/6-311++G(d,p) empiricaldispersion=gd3bj scf=xqc pop=npa geom=check

CID_114472568_JID_2444_Energie_kation

1 2

--Link1--
%chk=JID_2444.chk
%mem=8GB
%nprocshared=4
# B3LYP/6-311++G(d,p) empiricaldispersion=gd3bj scf=xqc pop=npa geom=check

CID_114472568_JID_2444_Energie_anion

-1 2
