%chk=JID_6143.chk
%mem=8GB
%nprocshared=4
# opt freq B3LYP/6-31G(d) empiricaldispersion=gd3bj scf=xqc

CID_53749959_JID_6143_neutraal

0 1
C          0.96653       -0.09104       -0.02433
C          0.81053        1.23081        0.72117
C          1.22801        2.52742       -0.03227
C          0.57839        2.66486       -1.43378
C         -0.93423        2.46226       -1.49360
C          0.86948        3.67244        0.91490
O          1.22461        3.76254        2.08257
O          0.11055        4.64869        0.38658
C          2.74207        2.53668       -0.25071
O          3.40940        1.55294       -0.54141
O          3.26943        3.78668       -0.12922
C          4.69066        3.91807       -0.30662
C          5.38860        3.98761        1.05211
C          5.42662        2.65863        1.81042
C          6.33733        1.69399        1.17810
N          7.08453        0.95378        0.68795
H          0.47447       -0.08407       -0.99933
H          0.51345       -0.89631        0.56447
H          2.01505       -0.36012       -0.17029
H         -0.23909        1.32023        1.03266
H          1.38664        1.14907        1.65346
H          0.80908        3.65512       -1.84953
H          1.04152        1.95052       -2.12747
H         -1.47040        3.14686       -0.83180
H         -1.28953        2.64321       -2.51370
H         -1.22146        1.44188       -1.22738
H         -0.00751        5.29061        1.11883
H          5.10637        3.13733       -0.95287
H          4.84305        4.86844       -0.82998
H          6.41176        4.35587        0.90750
H          4.86238        4.71837        1.67877
H          5.78278        2.85252        2.82953
H          4.42392        2.23309        1.91349

--Link1--
%chk=JID_6143.chk
%mem=8GB
%nprocshared=4
# B3LYP/6-311++G(d,p) empiricaldispersion=gd3bj scf=xqc pop=npa geom=check

CID_53749959_JID_6143_Energie_neutraal

0 1

--Link1--
%chk=JID_6143.chk
%mem=8GB
%nprocshared=4
# B3LYP/6-311++G(d,p) empiricaldispersion=gd3bj scf=xqc pop=npa geom=check

CID_53749959_JID_6143_Energie_kation

1 2

--Link1--
%chk=JID_6143.chk
%mem=8GB
%nprocshared=4
# B3LYP/6-311++G(d,p) empiricaldispersion=gd3bj scf=xqc pop=npa geom=check

CID_53749959_JID_6143_Energie_anion

-1 2
