%chk=JID_1413.chk
%mem=8GB
%nprocshared=4
# opt freq B3LYP/6-31G(d) empiricaldispersion=gd3bj scf=xqc

CID_152483462_JID_1413_neutraal

0 1
C          0.94500        0.06689       -0.05000
C          0.09819        1.19903        0.51159
C          0.49510        2.57960       -0.02999
C          0.23067        2.80126       -1.53596
N         -1.20376        2.84945       -1.81190
C         -1.54976        2.74458       -3.22742
C         -1.37964        1.34028       -3.84833
C         -1.88966        0.11418       -3.07692
C         -3.39577        0.02221       -2.91008
S         -3.24722        3.37426       -3.43578
S          1.01358        4.38555       -1.99017
H          0.80417       -0.04975       -1.12767
H          0.66862       -0.87959        0.42567
H          2.00867        0.24184        0.14043
H         -0.96134        0.99341        0.32962
H          0.22545        1.21144        1.60119
H         -0.04421        3.33753        0.55559
H          1.56232        2.72525        0.18763
H          0.72749        2.01037       -2.10452
H         -1.68209        2.10882       -1.30896
H         -0.94697        3.43595       -3.82557
H         -1.81374        1.32984       -4.85734
H         -0.30355        1.18027       -4.00243
H         -1.56067       -0.77763       -3.62584
H         -1.41249        0.05154       -2.09450
H         -3.91173        0.16451       -3.86447
H         -3.66762       -0.96715       -2.52696
H         -3.76524        0.75619       -2.18959
H         -3.60024        3.23450       -2.15227
H          0.11313        5.15535       -1.36298

--Link1--
%chk=JID_1413.chk
%mem=8GB
%nprocshared=4
# B3LYP/6-311++G(d,p) empiricaldispersion=gd3bj scf=xqc pop=npa geom=check

CID_152483462_JID_1413_Energie_neutraal

0 1

--Link1--
%chk=JID_1413.chk
%mem=8GB
%nprocshared=4
# B3LYP/6-311++G(d,p) empiricaldispersion=gd3bj scf=xqc pop=npa geom=check

CID_152483462_JID_1413_Energie_kation

1 2

--Link1--
%chk=JID_1413.chk
%mem=8GB
%nprocshared=4
# B3LYP/6-311++G(d,p) empiricaldispersion=gd3bj scf=xqc pop=npa geom=check

CID_152483462_JID_1413_Energie_anion

-1 2
