%chk=JID_5152.chk
%mem=8GB
%nprocshared=4
# opt freq B3LYP/6-31G(d) empiricaldispersion=gd3bj scf=xqc

CID_116555590_JID_5152_neutraal

0 1
C          1.07109        0.06017       -0.03641
N          0.41689        0.88248        0.97822
C         -0.96042        0.44169        1.21772
C         -1.09366       -0.65535        2.27946
C         -0.60170       -0.26793        3.67305
C         -1.45103        0.81783        4.30953
O         -2.56869        0.54218        4.75586
C         -0.96638        2.25651        4.28924
C          0.45712        2.43671        4.74324
C          1.48566        2.90996        3.91626
C          2.73784        3.14404        4.48997
C          2.95400        2.79891        5.81371
N          2.00518        2.27779        6.61253
C          0.77952        2.13105        6.06876
N          1.25386        3.36173        2.61037
H          0.55168        0.12900       -0.99763
H          1.12930       -0.98942        0.26794
H          2.09253        0.42202       -0.19031
H          0.97377        0.81921        1.83053
H         -1.54415        1.31405        1.52752
H         -1.42738        0.10432        0.28364
H         -2.15122       -0.94210        2.34024
H         -0.55019       -1.54950        1.95106
H         -0.67148       -1.14344        4.33130
H          0.45456        0.00780        3.67181
H         -1.14232        2.66208        3.29076
H         -1.61008        2.83868        4.96196
H          3.54479        3.58691        3.91654
H          3.92332        2.94979        6.27979
H          0.02680        1.75661        6.76013
H          2.09239        3.47650        2.04806
H          0.54837        2.85770        2.07327

--Link1--
%chk=JID_5152.chk
%mem=8GB
%nprocshared=4
# B3LYP/6-311++G(d,p) empiricaldispersion=gd3bj scf=xqc pop=npa geom=check

CID_116555590_JID_5152_Energie_neutraal

0 1

--Link1--
%chk=JID_5152.chk
%mem=8GB
%nprocshared=4
# B3LYP/6-311++G(d,p) empiricaldispersion=gd3bj scf=xqc pop=npa geom=check

CID_116555590_JID_5152_Energie_kation

1 2

--Link1--
%chk=JID_5152.chk
%mem=8GB
%nprocshared=4
# B3LYP/6-311++G(d,p) empiricaldispersion=gd3bj scf=xqc pop=npa geom=check

CID_116555590_JID_5152_Energie_anion

-1 2
