%chk=JID_10000.chk
%mem=8GB
%nprocshared=4
# opt freq B3LYP/6-31G(d) empiricaldispersion=gd3bj scf=xqc

CID_61252338_JID_10000_neutraal

0 1
C          0.65300       -1.21900        0.25200
C         -0.82515       -1.59459        0.46464
N         -1.68409       -0.41225        0.78217
C         -1.48644        0.63300       -0.27882
C          0.00271        0.99767       -0.43868
N          0.84452       -0.16835       -0.76937
S         -1.63325        0.19562        2.35400
O         -0.29746        0.09550        2.87932
O         -2.32276        1.46615        2.36965
N         -2.64501       -0.81735        3.20262
C         -2.35557       -2.22651        3.47184
C         -1.03288       -2.55216        4.12137
C         -0.23507       -3.58575        3.60353
C          1.02442       -3.87473        4.14795
C          1.48718       -3.13360        5.23864
C          0.68321       -2.13462        5.79145
C         -0.57177       -1.85399        5.24520
C          1.83268       -4.94186        3.49761
O          1.57120       -5.34102        2.36875
N          2.86078       -5.49137        4.21011
H          1.12540       -0.90027        1.18540
H          1.20069       -2.11173       -0.07127
H         -0.90288       -2.36136        1.22757
H         -1.22083       -2.05182       -0.45211
H         -1.87529        0.23222       -1.22409
H         -2.08233        1.52688       -0.07009
H          0.38405        1.47199        0.47302
H          0.10725        1.73582       -1.24152
H          0.54651       -0.53901       -1.67163
H         -2.95916       -0.31644        4.03154
H         -3.13751       -2.59134        4.15099
H         -2.49919       -2.79628        2.54828
H         -0.58206       -4.16482        2.74842
H          2.47769       -3.29173        5.65235
H          1.04783       -1.54788        6.63156
H         -1.16266       -1.04872        5.67552
H          3.00270       -5.33651        5.19655
H          3.34749       -6.26655        3.77835

--Link1--
%chk=JID_10000.chk
%mem=8GB
%nprocshared=4
# B3LYP/6-311++G(d,p) empiricaldispersion=gd3bj scf=xqc pop=npa geom=check

CID_61252338_JID_10000_Energie_neutraal

0 1

--Link1--
%chk=JID_10000.chk
%mem=8GB
%nprocshared=4
# B3LYP/6-311++G(d,p) empiricaldispersion=gd3bj scf=xqc pop=npa geom=check

CID_61252338_JID_10000_Energie_kation

1 2

--Link1--
%chk=JID_10000.chk
%mem=8GB
%nprocshared=4
# B3LYP/6-311++G(d,p) empiricaldispersion=gd3bj scf=xqc pop=npa geom=check

CID_61252338_JID_10000_Energie_anion

-1 2
