%chk=JID_1838.chk
%mem=8GB
%nprocshared=4
# opt freq B3LYP/6-31G(d) empiricaldispersion=gd3bj scf=xqc

CID_126647356_JID_1838_neutraal

0 1
C          0.95288        0.02411       -0.08485
C          0.36278        1.43635       -0.19571
C          0.23368        1.81276       -1.68076
C         -1.03233        1.53176        0.47561
C         -1.11216        1.07842        1.93810
O         -0.25421        1.88183        2.74078
C         -0.08219        1.49289        4.10228
C          0.74590        0.20688        4.20750
C          0.69330        2.64093        4.76030
N         -1.35205        1.35135        4.79918
N          1.31079        2.37536        0.42059
H          0.25913       -0.72249       -0.48763
H          1.17443       -0.25000        0.95232
H          1.89108       -0.06069       -0.64641
H         -0.43313        1.11854       -2.20498
H         -0.17544        2.82236       -1.80487
H          1.20486        1.78301       -2.18906
H         -1.37751        2.57344        0.41921
H         -1.75062        0.93435       -0.10096
H         -2.14626        1.20294        2.27812
H         -0.85454        0.01901        2.01708
H          0.20522       -0.66137        3.81604
H          1.66657        0.29148        3.61867
H          1.01774       -0.01539        5.24546
H          0.13855        3.58424        4.68453
H          0.90098        2.44672        5.81845
H          1.64892        2.80645        4.24841
H         -1.82038        0.50817        4.47969
H         -1.17744        1.21324        5.79261
H          1.23523        2.26976        1.43970
H          0.99105        3.33081        0.25792

--Link1--
%chk=JID_1838.chk
%mem=8GB
%nprocshared=4
# B3LYP/6-311++G(d,p) empiricaldispersion=gd3bj scf=xqc pop=npa geom=check

CID_126647356_JID_1838_Energie_neutraal

0 1

--Link1--
%chk=JID_1838.chk
%mem=8GB
%nprocshared=4
# B3LYP/6-311++G(d,p) empiricaldispersion=gd3bj scf=xqc pop=npa geom=check

CID_126647356_JID_1838_Energie_kation

1 2

--Link1--
%chk=JID_1838.chk
%mem=8GB
%nprocshared=4
# B3LYP/6-311++G(d,p) empiricaldispersion=gd3bj scf=xqc pop=npa geom=check

CID_126647356_JID_1838_Energie_anion

-1 2
