%chk=JID_6556.chk
%mem=8GB
%nprocshared=4
# opt freq B3LYP/6-31G(d) empiricaldispersion=gd3bj scf=xqc

CID_107710563_JID_6556_neutraal

0 1
C          0.92110       -0.00254        0.06139
C          0.26629        0.00412       -1.32386
C          0.52108       -1.30992       -2.04716
C          1.45714       -1.37241       -3.09237
C          1.72038       -2.56625       -3.76937
C          1.05184       -3.73203       -3.40388
C          0.12836       -3.70511       -2.36186
C         -0.12771       -2.50620       -1.69099
O         -1.03251       -2.50266       -0.66013
O          2.13908       -0.24034       -3.44980
N         -1.17077        0.25480       -1.16528
C         -1.91791        0.85627       -2.11935
C         -1.50786        1.69175       -3.12446
N         -2.63764        2.03569       -3.80881
N         -3.76070        1.48254       -3.31644
C         -3.31689        0.76689       -2.27708
H          0.50284       -0.77621        0.71465
H          0.76938        0.96061        0.56170
H          1.99995       -0.17751       -0.01537
H          0.71768        0.83911       -1.87041
H          2.44338       -2.60613       -4.57855
H          1.25328       -4.66249       -3.92842
H         -0.38019       -4.62396       -2.08584
H         -1.40165       -3.39698       -0.56772
H          2.71758       -0.44501       -4.20269
H         -1.59842       -0.51669       -0.64924
H         -0.54025        2.06985       -3.41629
H         -2.71682        2.64260       -4.61695
H         -4.02652        0.21082       -1.68035

--Link1--
%chk=JID_6556.chk
%mem=8GB
%nprocshared=4
# B3LYP/6-311++G(d,p) empiricaldispersion=gd3bj scf=xqc pop=npa geom=check

CID_107710563_JID_6556_Energie_neutraal

0 1

--Link1--
%chk=JID_6556.chk
%mem=8GB
%nprocshared=4
# B3LYP/6-311++G(d,p) empiricaldispersion=gd3bj scf=xqc pop=npa geom=check

CID_107710563_JID_6556_Energie_kation

1 2

--Link1--
%chk=JID_6556.chk
%mem=8GB
%nprocshared=4
# B3LYP/6-311++G(d,p) empiricaldispersion=gd3bj scf=xqc pop=npa geom=check

CID_107710563_JID_6556_Energie_anion

-1 2
