%chk=JID_4953.chk
%mem=8GB
%nprocshared=4
# opt freq B3LYP/6-31G(d) empiricaldispersion=gd3bj scf=xqc

CID_79466095_JID_4953_neutraal

0 1
C         -0.10100       -1.10500        0.49300
C          1.20715       -1.23387       -0.27713
C          1.41580        0.13891       -0.93237
C          0.43086        1.10826       -0.25702
C         -0.07075        0.34477        0.96778
N         -1.36248        0.80534        1.44887
O          1.33989        0.15409       -2.35590
C          0.13614       -0.31409       -2.96299
C          0.27543       -1.72533       -3.47293
C         -0.79779       -2.61806       -3.38903
C         -0.63398       -3.90387       -3.88106
N          0.50416       -4.35137       -4.45055
C          1.52470       -3.47097       -4.53463
C          1.45767       -2.16595       -4.07367
H         -0.15854       -1.81517        1.32404
H         -0.95313       -1.29265       -0.17110
H          1.20174       -2.07739       -0.96839
H          2.01725       -1.41182        0.44199
H          2.43614        0.46736       -0.69961
H         -0.38691        1.39829       -0.92516
H          0.93059        2.03828        0.03780
H          0.65994        0.44235        1.78076
H         -1.31060        1.79683        1.68186
H         -2.06515        0.72558        0.71511
H         -0.72256       -0.22412       -2.29156
H         -0.06193        0.33287       -3.82517
H         -1.74368       -2.32802       -2.94438
H         -1.44068       -4.62955       -3.82790
H          2.42946       -3.85364       -4.99755
H          2.31556       -1.50767       -4.17018

--Link1--
%chk=JID_4953.chk
%mem=8GB
%nprocshared=4
# B3LYP/6-311++G(d,p) empiricaldispersion=gd3bj scf=xqc pop=npa geom=check

CID_79466095_JID_4953_Energie_neutraal

0 1

--Link1--
%chk=JID_4953.chk
%mem=8GB
%nprocshared=4
# B3LYP/6-311++G(d,p) empiricaldispersion=gd3bj scf=xqc pop=npa geom=check

CID_79466095_JID_4953_Energie_kation

1 2

--Link1--
%chk=JID_4953.chk
%mem=8GB
%nprocshared=4
# B3LYP/6-311++G(d,p) empiricaldispersion=gd3bj scf=xqc pop=npa geom=check

CID_79466095_JID_4953_Energie_anion

-1 2
