%chk=JID_10380.chk
%mem=8GB
%nprocshared=4
# opt freq B3LYP/6-31G(d) empiricaldispersion=gd3bj scf=xqc

CID_65116680_JID_10380_neutraal

0 1
C          0.97668        0.08605        0.04529
C         -0.21744        0.55209       -0.78767
C         -0.48004        2.05694       -0.63715
C          0.44761        2.92796       -1.48228
C          0.43469        2.50698       -2.95059
C          0.79496        1.02627       -3.14547
C         -0.11862        0.14903       -2.26517
C          2.32446        0.80090       -2.96766
N          2.67891       -0.61638       -3.15505
C          4.12742       -0.84427       -3.28624
C          4.89163       -0.46601       -2.01102
C          4.37200       -2.33792       -3.59470
C          3.72733       -2.84291       -4.89252
C          4.35713       -2.27056       -6.13789
C          5.57978       -2.76848       -6.60848
C          6.16606       -2.23465       -7.75683
C          5.53783       -1.19736       -8.44329
C          4.32396       -0.69207       -7.98134
C          3.73609       -1.22528       -6.83359
O          0.49910        0.68128       -4.51297
H          1.20890       -0.96545       -0.15164
H          0.74355        0.17510        1.11256
H          1.87547        0.67900       -0.12852
H         -1.08978        0.02731       -0.37370
H         -1.51481        2.26029       -0.94330
H         -0.40760        2.35353        0.41600
H          1.46679        2.88696       -1.08326
H          0.12801        3.97385       -1.40438
H          1.11714        3.14388       -3.52725
H         -0.56173        2.69818       -3.37192
H          0.13983       -0.91254       -2.35813
H         -1.13381        0.20696       -2.68686
H          2.84279        1.38897       -3.73657
H          2.66831        1.16100       -1.99777
H          2.33199       -1.15427       -2.35998
H          4.52036       -0.24390       -4.11495
H          4.48920       -0.98437       -1.13352
H          5.95034       -0.73293       -2.10155
H          4.84952        0.61101       -1.82018
H          5.45312       -2.52596       -3.63010
H          3.98465       -2.94420       -2.76424
H          3.82721       -3.93577       -4.93216
H          2.64706       -2.65404       -4.89319
H          6.08036       -3.57856       -6.08330
H          7.11249       -2.62939       -8.11643
H          5.99360       -0.78253       -9.33815
H          3.83320        0.11823       -8.51394
H          2.79153       -0.81612       -6.48162
H          1.00231       -0.14269       -4.67344

--Link1--
%chk=JID_10380.chk
%mem=8GB
%nprocshared=4
# B3LYP/6-311++G(d,p) empiricaldispersion=gd3bj scf=xqc pop=npa geom=check

CID_65116680_JID_10380_Energie_neutraal

0 1

--Link1--
%chk=JID_10380.chk
%mem=8GB
%nprocshared=4
# B3LYP/6-311++G(d,p) empiricaldispersion=gd3bj scf=xqc pop=npa geom=check

CID_65116680_JID_10380_Energie_kation

1 2

--Link1--
%chk=JID_10380.chk
%mem=8GB
%nprocshared=4
# B3LYP/6-311++G(d,p) empiricaldispersion=gd3bj scf=xqc pop=npa geom=check

CID_65116680_JID_10380_Energie_anion

-1 2
