%chk=JID_6988.chk
%mem=8GB
%nprocshared=4
# opt freq B3LYP/6-31G(d) empiricaldispersion=gd3bj scf=xqc

CID_106753473_JID_6988_neutraal

0 1
C          2.44200       -0.09800       -0.00700
C          1.11099       -0.57834        0.48818
N          0.67791       -0.09644        1.67807
C         -0.53411       -0.49810        2.12253
C         -1.33827       -1.39216        1.44678
C         -0.85036       -1.90499        0.25089
C          0.37080       -1.47920       -0.26330
C         -1.67876       -2.83853       -0.51986
O         -2.57010       -2.39776       -1.23652
N         -1.44554       -4.19063       -0.43605
C         -0.49628       -4.94953        0.42528
C         -0.63096       -4.69314        1.95468
C         -0.53648       -6.21443        2.17203
C         -1.03266       -6.38869        0.72504
C          0.91941       -4.94327       -0.16036
O          0.86998       -5.22710       -1.55790
H          2.32579        0.41512       -0.96665
H          2.89181        0.60370        0.70275
H          3.12627       -0.94313       -0.13093
H         -0.84788       -0.06134        3.06655
H         -2.30913       -1.67715        1.83442
H          0.73077       -1.83683       -1.22199
H         -2.11603       -4.71232       -0.99510
H          0.16775       -4.10895        2.42025
H         -1.59819       -4.28242        2.26806
H         -1.18748       -6.62369        2.94873
H          0.48411       -6.57639        2.33932
H         -2.12253       -6.49445        0.65492
H         -0.57064       -7.20910        0.16818
H          1.40911       -3.97652       -0.02659
H          1.56105       -5.69432        0.31146
H          0.17218       -4.65854       -1.93143

--Link1--
%chk=JID_6988.chk
%mem=8GB
%nprocshared=4
# B3LYP/6-311++G(d,p) empiricaldispersion=gd3bj scf=xqc pop=npa geom=check

CID_106753473_JID_6988_Energie_neutraal

0 1

--Link1--
%chk=JID_6988.chk
%mem=8GB
%nprocshared=4
# B3LYP/6-311++G(d,p) empiricaldispersion=gd3bj scf=xqc pop=npa geom=check

CID_106753473_JID_6988_Energie_kation

1 2

--Link1--
%chk=JID_6988.chk
%mem=8GB
%nprocshared=4
# B3LYP/6-311++G(d,p) empiricaldispersion=gd3bj scf=xqc pop=npa geom=check

CID_106753473_JID_6988_Energie_anion

-1 2
