%chk=JID_7354.chk
%mem=8GB
%nprocshared=4
# opt freq B3LYP/6-31G(d) empiricaldispersion=gd3bj scf=xqc

CID_86590531_JID_7354_neutraal

0 1
C          1.34400       -0.22500        0.03600
C          1.01735        1.11336       -0.16939
C         -0.31802        1.49292       -0.30976
C         -1.34154        0.53615       -0.24445
C         -1.00254       -0.80726       -0.03501
C          0.33491       -1.18442        0.10345
C         -2.78140        0.95454       -0.39432
C         -3.27263        1.78913        0.76473
O         -3.15848        3.00905        0.82305
O         -3.82966        0.96099        1.71839
N         -4.31526        1.72031        2.87417
C         -5.74082        1.41808        2.98954
C         -6.06407       -0.03209        3.36863
C         -5.56807       -0.45899        4.74887
C         -6.30197        0.26402        5.85378
O         -7.41960       -0.05722        6.23918
N         -5.65198        1.33473        6.38872
H          2.38441       -0.52027        0.14382
H          1.80224        1.86374       -0.22014
H         -0.55558        2.54442       -0.46691
H         -1.77326       -1.57301        0.01829
H          0.59127       -2.22886        0.26256
H         -2.90543        1.53731       -1.31542
H         -3.43857        0.08423       -0.51445
H         -3.76907        1.30814        3.62633
H         -6.17581        2.09925        3.72837
H         -6.23468        1.65860        2.03987
H         -7.15358       -0.15823        3.32535
H         -5.64628       -0.71224        2.61654
H         -5.75069       -1.53134        4.88884
H         -4.48785       -0.31671        4.85485
H         -4.84033        1.75685        5.95949
H         -6.15624        1.87807        7.07843

--Link1--
%chk=JID_7354.chk
%mem=8GB
%nprocshared=4
# B3LYP/6-311++G(d,p) empiricaldispersion=gd3bj scf=xqc pop=npa geom=check

CID_86590531_JID_7354_Energie_neutraal

0 1

--Link1--
%chk=JID_7354.chk
%mem=8GB
%nprocshared=4
# B3LYP/6-311++G(d,p) empiricaldispersion=gd3bj scf=xqc pop=npa geom=check

CID_86590531_JID_7354_Energie_kation

1 2

--Link1--
%chk=JID_7354.chk
%mem=8GB
%nprocshared=4
# B3LYP/6-311++G(d,p) empiricaldispersion=gd3bj scf=xqc pop=npa geom=check

CID_86590531_JID_7354_Energie_anion

-1 2
