%chk=JID_5668.chk
%mem=8GB
%nprocshared=4
# opt freq B3LYP/6-31G(d) empiricaldispersion=gd3bj scf=xqc

CID_71500130_JID_5668_neutraal

0 1
C          1.05749       -0.08138       -0.00843
C          0.32353        0.07379       -1.34277
C          0.53426       -1.18987       -2.18904
C         -1.18639        0.35617       -1.15533
C         -1.56655        1.54710       -0.24845
C         -1.24099        2.93061       -0.76442
C         -2.15785        3.90251       -0.81856
C         -1.78338        5.26087       -1.20650
O         -2.59254        6.17595       -1.14223
O         -0.50380        5.44497       -1.58250
C          0.27409        4.29857       -1.94643
O          0.06264        3.12897       -1.14524
C          1.74006        4.68936       -1.75887
C          0.02479        3.96585       -3.42289
O         -1.81948        0.51686       -2.42934
H          0.58864       -0.85018        0.61485
H          1.06795        0.85778        0.55251
H          2.10211       -0.36905       -0.16998
H          0.78536        0.89305       -1.90507
H          0.08850       -2.06761       -1.70900
H          0.08809       -1.08099       -3.18282
H          1.60237       -1.38830       -2.33028
H         -1.64075       -0.53727       -0.70792
H         -2.65223        1.48870       -0.08716
H         -1.11336        1.42601        0.74167
H         -3.18657        3.76139       -0.51142
H          2.41132        3.86985       -2.03783
H          1.99621        5.57917       -2.34404
H          1.93889        4.92575       -0.70702
H          0.24062        4.82706       -4.06447
H          0.63046        3.11267       -3.74615
H         -1.02336        3.69781       -3.59659
H         -1.33399        1.20974       -2.90902

--Link1--
%chk=JID_5668.chk
%mem=8GB
%nprocshared=4
# B3LYP/6-311++G(d,p) empiricaldispersion=gd3bj scf=xqc pop=npa geom=check

CID_71500130_JID_5668_Energie_neutraal

0 1

--Link1--
%chk=JID_5668.chk
%mem=8GB
%nprocshared=4
# B3LYP/6-311++G(d,p) empiricaldispersion=gd3bj scf=xqc pop=npa geom=check

CID_71500130_JID_5668_Energie_kation

1 2

--Link1--
%chk=JID_5668.chk
%mem=8GB
%nprocshared=4
# B3LYP/6-311++G(d,p) empiricaldispersion=gd3bj scf=xqc pop=npa geom=check

CID_71500130_JID_5668_Energie_anion

-1 2
