%chk=JID_10606.chk
%mem=8GB
%nprocshared=4
# opt freq B3LYP/6-31G(d) empiricaldispersion=gd3bj scf=xqc

CID_150062005_JID_10606_neutraal

0 1
C          1.34400       -0.22500        0.03600
C          0.62692        0.88377       -0.41293
C         -0.61539        0.70991       -1.02592
C         -1.15647       -0.57386       -1.17206
C         -0.41445       -1.68511       -0.75004
C          0.82785       -1.50835       -0.13725
C         -2.46277       -0.72370       -1.87355
O         -2.72080        0.02298       -2.81833
N         -3.31442       -1.76435       -1.57608
C         -3.50198       -2.45653       -0.36451
C         -3.93771       -3.78369       -0.45868
C         -4.09149       -4.56380        0.69015
C         -3.83112       -4.01775        1.94491
C         -3.45752       -2.67937        2.05527
C         -3.33354       -1.88810        0.90773
O         -3.10259       -0.53996        1.04058
C         -4.23464        0.11147        1.64171
C         -4.12289        1.62218        1.44671
C         -4.26863        2.03890       -0.00906
O         -5.55557        1.68034       -0.49354
H          2.31217       -0.08881        0.51137
H          1.03749        1.88289       -0.29264
H         -1.16068        1.57611       -1.39182
H         -0.78694       -2.69370       -0.90241
H          1.39503       -2.37279        0.19801
H         -3.92469       -2.01059       -2.34483
H         -4.11801       -4.23862       -1.42951
H         -4.40132       -5.60239        0.60348
H         -3.93648       -4.62807        2.83829
H         -3.28019       -2.25082        3.03758
H         -5.17600       -0.25837        1.21460
H         -4.23484       -0.09427        2.71886
H         -4.90994        2.10448        2.03809
H         -3.15210        1.97002        1.81743
H         -4.16024        3.12391       -0.10315
H         -3.51057        1.56434       -0.63266
H         -5.50545        1.73246       -1.46542

--Link1--
%chk=JID_10606.chk
%mem=8GB
%nprocshared=4
# B3LYP/6-311++G(d,p) empiricaldispersion=gd3bj scf=xqc pop=npa geom=check

CID_150062005_JID_10606_Energie_neutraal

0 1

--Link1--
%chk=JID_10606.chk
%mem=8GB
%nprocshared=4
# B3LYP/6-311++G(d,p) empiricaldispersion=gd3bj scf=xqc pop=npa geom=check

CID_150062005_JID_10606_Energie_kation

1 2

--Link1--
%chk=JID_10606.chk
%mem=8GB
%nprocshared=4
# B3LYP/6-311++G(d,p) empiricaldispersion=gd3bj scf=xqc pop=npa geom=check

CID_150062005_JID_10606_Energie_anion

-1 2
