%chk=JID_4556.chk
%mem=8GB
%nprocshared=4
# opt freq B3LYP/6-31G(d) empiricaldispersion=gd3bj scf=xqc

CID_134326998_JID_4556_neutraal

0 1
C          1.03722       -0.08163        0.04417
C          0.86593        1.42716        0.12782
C          1.28566        2.16126       -1.14798
C          0.50905        1.78554       -2.41442
C         -1.01271        1.96017       -2.33697
C         -1.50365        3.36928       -1.98705
C         -1.13001        4.40217       -3.01412
C         -2.02394        5.07468       -3.75658
C         -1.65390        6.12548       -4.76494
C         -1.97186        5.73640       -6.21959
C         -3.45965        5.49085       -6.52093
C         -4.35122        6.71844       -6.34085
O         -4.01596        7.74557       -7.26428
O         -1.50351        6.77848       -7.08722
H          0.36210       -0.52179       -0.69547
H          0.81156       -0.53946        1.01265
H          2.06500       -0.34597       -0.22389
H         -0.17279        1.66401        0.38214
H          1.47928        1.80066        0.95686
H          1.20061        3.24052       -0.97497
H          2.35103        1.97087       -1.33025
H          0.90132        2.37924       -3.24903
H          0.72381        0.74157       -2.67312
H         -1.44121        1.66204       -3.30285
H         -1.41915        1.25716       -1.60012
H         -2.59455        3.33134       -1.87351
H         -1.11088        3.68155       -1.01327
H         -0.06854        4.61292       -3.12756
H         -3.08573        4.87921       -3.61972
H         -2.15435        7.06548       -4.50412
H         -0.58235        6.35658       -4.69510
H         -1.41683        4.82692       -6.48164
H         -3.53737        5.17769       -7.57036
H         -3.84031        4.66790       -5.90700
H         -5.39635        6.44621       -6.51874
H         -4.28484        7.12419       -5.32771
H         -3.04231        7.70939       -7.38426
H         -0.53124        6.79364       -7.01665

--Link1--
%chk=JID_4556.chk
%mem=8GB
%nprocshared=4
# B3LYP/6-311++G(d,p) empiricaldispersion=gd3bj scf=xqc pop=npa geom=check

CID_134326998_JID_4556_Energie_neutraal

0 1

--Link1--
%chk=JID_4556.chk
%mem=8GB
%nprocshared=4
# B3LYP/6-311++G(d,p) empiricaldispersion=gd3bj scf=xqc pop=npa geom=check

CID_134326998_JID_4556_Energie_kation

1 2

--Link1--
%chk=JID_4556.chk
%mem=8GB
%nprocshared=4
# B3LYP/6-311++G(d,p) empiricaldispersion=gd3bj scf=xqc pop=npa geom=check

CID_134326998_JID_4556_Energie_anion

-1 2
