%chk=JID_1271.chk
%mem=8GB
%nprocshared=4
# opt freq B3LYP/6-31G(d) empiricaldispersion=gd3bj scf=xqc

CID_154535489_JID_1271_neutraal

0 1
C          0.97666       -0.07938       -0.05615
C          0.59657       -1.52157        0.23873
N          1.17010       -2.08147        1.53931
C          0.74084       -1.25343        2.74898
C         -0.75540       -1.14072        2.98286
C          0.72055       -3.53345        1.72456
C          1.45549       -4.53472        0.84375
N          2.58550       -5.06348        1.62930
O          2.35306       -5.90262        2.48769
C          3.97631       -4.68982        1.35693
O          2.54528       -2.04952        1.46936
H          0.51058        0.61252        0.65110
H          0.63651        0.19831       -1.05890
H          2.05975        0.06882       -0.01187
H         -0.49002       -1.64150        0.28253
H          0.98276       -2.16286       -0.55962
H          1.22729       -1.72274        3.61283
H          1.19395       -0.26438        2.62360
H         -1.22225       -2.12142        3.10894
H         -0.94568       -0.56249        3.89281
H         -1.25780       -0.62944        2.15725
H          0.83863       -3.76068        2.79018
H         -0.34820       -3.53795        1.48507
H          0.81294       -5.39281        0.61871
H          1.83376       -4.12695       -0.09529
H          4.03607       -4.12992        0.42213
H          4.33422       -4.08428        2.19210
H          4.56550       -5.60633        1.27440

--Link1--
%chk=JID_1271.chk
%mem=8GB
%nprocshared=4
# B3LYP/6-311++G(d,p) empiricaldispersion=gd3bj scf=xqc pop=npa geom=check

CID_154535489_JID_1271_Energie_neutraal

0 1

--Link1--
%chk=JID_1271.chk
%mem=8GB
%nprocshared=4
# B3LYP/6-311++G(d,p) empiricaldispersion=gd3bj scf=xqc pop=npa geom=check

CID_154535489_JID_1271_Energie_kation

1 2

--Link1--
%chk=JID_1271.chk
%mem=8GB
%nprocshared=4
# B3LYP/6-311++G(d,p) empiricaldispersion=gd3bj scf=xqc pop=npa geom=check

CID_154535489_JID_1271_Energie_anion

-1 2
