%chk=JID_8579.chk
%mem=8GB
%nprocshared=4
# opt freq B3LYP/6-31G(d) empiricaldispersion=gd3bj scf=xqc

CID_64232636_JID_8579_neutraal

0 1
C          1.86400        1.49500        0.03800
C          0.64591        0.60919        0.18508
C          0.81424       -0.79207        0.32671
C         -0.31641       -1.60985        0.40729
C         -1.58750       -1.05678        0.45899
C         -1.75064        0.32255        0.34604
C         -0.66230        1.17985        0.13852
N         -0.80452        2.56144       -0.00479
C         -2.03343        3.32663       -0.20282
C         -2.89313        2.93546       -1.41486
O         -4.29487        3.11266       -1.07427
C         -4.30641        3.15840        0.29713
C         -5.45712        3.13175        1.05825
C         -5.32366        3.18337        2.44774
C         -4.05264        3.26733        3.04097
C         -2.90055        3.30520        2.25162
C         -3.04727        3.24277        0.87568
N          2.06260       -1.42187        0.15902
H          2.72601        1.10458        0.58575
H          2.12637        1.59532       -1.01951
H          1.69854        2.48998        0.46335
H         -0.21191       -2.69062        0.44738
H         -2.45790       -1.69767        0.56850
H         -2.76767        0.69459        0.39215
H         -0.05183        2.94787       -0.56647
H         -1.75473        4.38428       -0.30016
H         -2.75618        1.89725       -1.73593
H         -2.66351        3.57198       -2.27691
H         -6.43277        3.06791        0.58991
H         -6.21037        3.15879        3.07649
H         -3.96535        3.30660        4.12425
H         -1.91504        3.37397        2.70199
H          2.09613       -2.35529        0.55723
H          2.85730       -0.86802        0.45289

--Link1--
%chk=JID_8579.chk
%mem=8GB
%nprocshared=4
# B3LYP/6-311++G(d,p) empiricaldispersion=gd3bj scf=xqc pop=npa geom=check

CID_64232636_JID_8579_Energie_neutraal

0 1

--Link1--
%chk=JID_8579.chk
%mem=8GB
%nprocshared=4
# B3LYP/6-311++G(d,p) empiricaldispersion=gd3bj scf=xqc pop=npa geom=check

CID_64232636_JID_8579_Energie_kation

1 2

--Link1--
%chk=JID_8579.chk
%mem=8GB
%nprocshared=4
# B3LYP/6-311++G(d,p) empiricaldispersion=gd3bj scf=xqc pop=npa geom=check

CID_64232636_JID_8579_Energie_anion

-1 2
