%chk=JID_4090.chk
%mem=8GB
%nprocshared=4
# opt freq B3LYP/6-31G(d) empiricaldispersion=gd3bj scf=xqc

CID_149618857_JID_4090_neutraal

0 1
C          0.95047        0.02041       -0.08444
C          0.38436       -1.01012       -1.06946
C          0.93575       -2.43215       -0.79880
C          0.67287       -3.00153        0.57369
C          0.15470       -4.21609        0.79933
C         -1.12139       -0.90274       -1.15082
C         -1.90597        0.18045       -1.50989
C         -3.27093       -0.20937       -1.44942
C         -4.49191        0.44841       -1.69215
C         -5.69138       -0.25792       -1.54304
C         -5.68409       -1.59764       -1.15987
C         -4.48333       -2.26908       -0.90964
C         -3.29427       -1.54593       -1.06113
N         -1.98751       -1.93707       -0.88004
H          0.52371       -0.09600        0.91769
H          0.72631        1.04133       -0.41404
H          2.03950       -0.06729       -0.00861
H          0.75865       -0.73118       -2.06555
H          0.55793       -3.11715       -1.56940
H          2.02584       -2.40384       -0.92919
H          0.95103       -2.38966        1.42975
H          0.00480       -4.57320        1.81456
H         -0.11533       -4.88672       -0.01059
H         -1.53505        1.15876       -1.78686
H         -4.50461        1.49168       -1.99201
H         -6.63654        0.24565       -1.72958
H         -6.62626       -2.13008       -1.05226
H         -4.47995       -3.31161       -0.60984
H         -1.71802       -2.86421       -0.58553

--Link1--
%chk=JID_4090.chk
%mem=8GB
%nprocshared=4
# B3LYP/6-311++G(d,p) empiricaldispersion=gd3bj scf=xqc pop=npa geom=check

CID_149618857_JID_4090_Energie_neutraal

0 1

--Link1--
%chk=JID_4090.chk
%mem=8GB
%nprocshared=4
# B3LYP/6-311++G(d,p) empiricaldispersion=gd3bj scf=xqc pop=npa geom=check

CID_149618857_JID_4090_Energie_kation

1 2

--Link1--
%chk=JID_4090.chk
%mem=8GB
%nprocshared=4
# B3LYP/6-311++G(d,p) empiricaldispersion=gd3bj scf=xqc pop=npa geom=check

CID_149618857_JID_4090_Energie_anion

-1 2
