%chk=JID_6755.chk
%mem=8GB
%nprocshared=4
# opt freq B3LYP/6-31G(d) empiricaldispersion=gd3bj scf=xqc

CID_63580910_JID_6755_neutraal

0 1
C          2.54100       -1.13900        0.05100
C          1.61189        0.04289        0.06243
C          1.79758        1.17035        0.88254
C          0.89082        2.23492        0.79550
C         -0.18695        2.18958       -0.09359
C         -0.41033        1.06211       -0.87902
C          0.52692        0.02731       -0.83799
N         -1.41796        1.06338       -1.84993
S          3.09541        1.31467        2.10609
C          4.56011        1.48273        1.02290
C          5.87667        1.23725        1.77142
C          5.94319       -0.05191        2.59192
C          7.04496        1.38799        0.79972
O          7.72162        2.41866        0.80281
N          7.33699        0.42123       -0.13514
N          6.76784       -0.84817       -0.25937
H          1.99419       -2.05490       -0.20123
H          3.32579       -0.99525       -0.69718
H          2.99703       -1.31949        1.02803
H          1.01648        3.11833        1.41805
H         -0.85490        3.04427       -0.15722
H          0.40524       -0.82078       -1.50914
H         -1.71168        0.13409       -2.13485
H         -2.20842        1.65625       -1.61543
H          4.46970        0.80280        0.17525
H          4.55531        2.49584        0.60358
H          6.00601        2.05764        2.49335
H          5.46093       -0.89220        2.08359
H          6.97898       -0.33208        2.81150
H          5.43306        0.07540        3.55324
H          8.13259        0.65178       -0.73183
H          7.03425       -1.42833        0.53923
H          5.75032       -0.79644       -0.28396

--Link1--
%chk=JID_6755.chk
%mem=8GB
%nprocshared=4
# B3LYP/6-311++G(d,p) empiricaldispersion=gd3bj scf=xqc pop=npa geom=check

CID_63580910_JID_6755_Energie_neutraal

0 1

--Link1--
%chk=JID_6755.chk
%mem=8GB
%nprocshared=4
# B3LYP/6-311++G(d,p) empiricaldispersion=gd3bj scf=xqc pop=npa geom=check

CID_63580910_JID_6755_Energie_kation

1 2

--Link1--
%chk=JID_6755.chk
%mem=8GB
%nprocshared=4
# B3LYP/6-311++G(d,p) empiricaldispersion=gd3bj scf=xqc pop=npa geom=check

CID_63580910_JID_6755_Energie_anion

-1 2
