%chk=JID_4975.chk
%mem=8GB
%nprocshared=4
# opt freq B3LYP/6-31G(d) empiricaldispersion=gd3bj scf=xqc

CID_10932434_JID_4975_neutraal

0 1
C          0.95018        0.07741        0.03906
C          0.64911       -1.37779       -0.28311
C          1.14851       -2.35604        0.78231
C          0.60063       -2.14410        2.20066
C         -0.93453       -2.20271        2.34591
C         -1.55603       -3.54851        2.03830
C         -2.51681       -4.17728        2.73720
C         -3.08520       -5.51729        2.36170
C         -2.67734       -6.63493        3.32536
C         -3.22580       -6.45711        4.73426
O         -1.37708       -1.65530        3.61250
C         -0.90842       -2.16681        4.78118
O         -0.12027       -3.09088        4.91216
C         -1.51876       -1.42274        5.93051
H          0.39611        0.41600        0.91948
H          0.65921        0.71604       -0.80116
H          2.01882        0.22618        0.22317
H         -0.42675       -1.50356       -0.44500
H          1.13310       -1.63041       -1.23447
H          0.92668       -3.37718        0.45124
H          2.24322       -2.28999        0.82986
H          1.06481       -2.90677        2.83681
H          0.96063       -1.18472        2.59294
H         -1.35619       -1.50765        1.61125
H         -1.18296       -4.03426        1.13913
H         -2.93820       -3.71342        3.62481
H         -4.17824       -5.43701        2.32436
H         -2.76220       -5.79534        1.35075
H         -3.04612       -7.58796        2.92726
H         -1.58421       -6.71241        3.36970
H         -4.31580       -6.35800        4.72167
H         -2.97205       -7.32748        5.34795
H         -2.80301       -5.57355        5.22193
H         -1.23927       -0.36744        5.87951
H         -2.60569       -1.53547        5.90952
H         -1.14417       -1.83718        6.87090

--Link1--
%chk=JID_4975.chk
%mem=8GB
%nprocshared=4
# B3LYP/6-311++G(d,p) empiricaldispersion=gd3bj scf=xqc pop=npa geom=check

CID_10932434_JID_4975_Energie_neutraal

0 1

--Link1--
%chk=JID_4975.chk
%mem=8GB
%nprocshared=4
# B3LYP/6-311++G(d,p) empiricaldispersion=gd3bj scf=xqc pop=npa geom=check

CID_10932434_JID_4975_Energie_kation

1 2

--Link1--
%chk=JID_4975.chk
%mem=8GB
%nprocshared=4
# B3LYP/6-311++G(d,p) empiricaldispersion=gd3bj scf=xqc pop=npa geom=check

CID_10932434_JID_4975_Energie_anion

-1 2
