%chk=JID_8009.chk
%mem=8GB
%nprocshared=4
# opt freq B3LYP/6-31G(d) empiricaldispersion=gd3bj scf=xqc

CID_139378105_JID_8009_neutraal

0 1
C          0.93033        0.02713        0.06640
C          0.00757        0.24613        1.22372
C         -0.82496        1.28674        1.46170
C         -0.92430        2.56486        0.54289
C         -1.53516        3.78407        1.26288
O          0.36156        2.89777       -0.00105
C          1.29792        3.46839        0.89940
S         -2.08326        2.08829       -0.83526
C         -1.96030        3.51028       -1.86122
N         -2.88240        4.40842       -1.96019
C         -4.14788        4.27303       -1.25958
C         -0.72399        3.66344       -2.69106
C         -0.27911        4.95880       -2.99414
C          0.86161        5.15060       -3.77661
C          1.56036        4.05057       -4.27084
C          1.11692        2.75909       -3.98992
C         -0.02446        2.56384       -3.20768
N         -1.63603        1.21306        2.59748
H          0.69555        0.63655       -0.80648
H          0.86241       -1.01765       -0.25547
H          1.96377        0.21960        0.36912
H          0.00825       -0.58631        1.92528
H         -0.98685        4.01668        2.18377
H         -1.47424        4.68748        0.64536
H         -2.58108        3.62535        1.54825
H          1.04113        4.50992        1.11156
H          1.37289        2.89921        1.82992
H          2.27802        3.46155        0.41398
H         -4.64411        3.32236       -1.47986
H         -4.02980        4.39554       -0.17984
H         -4.82226        5.06604       -1.59915
H         -0.82107        5.82416       -2.61895
H          1.20038        6.15817       -4.00295
H          2.44712        4.19955       -4.88164
H          1.65640        1.90124       -4.38321
H         -0.35825        1.54768       -3.01808
H         -1.35340        0.50761        3.27270
H         -1.86134        2.09955        3.03666

--Link1--
%chk=JID_8009.chk
%mem=8GB
%nprocshared=4
# B3LYP/6-311++G(d,p) empiricaldispersion=gd3bj scf=xqc pop=npa geom=check

CID_139378105_JID_8009_Energie_neutraal

0 1

--Link1--
%chk=JID_8009.chk
%mem=8GB
%nprocshared=4
# B3LYP/6-311++G(d,p) empiricaldispersion=gd3bj scf=xqc pop=npa geom=check

CID_139378105_JID_8009_Energie_kation

1 2

--Link1--
%chk=JID_8009.chk
%mem=8GB
%nprocshared=4
# B3LYP/6-311++G(d,p) empiricaldispersion=gd3bj scf=xqc pop=npa geom=check

CID_139378105_JID_8009_Energie_anion

-1 2
