%chk=JID_5904.chk
%mem=8GB
%nprocshared=4
# opt freq B3LYP/6-31G(d) empiricaldispersion=gd3bj scf=xqc

CID_80340550_JID_5904_neutraal

0 1
C          1.00396        0.09565       -0.02891
C          0.19423       -0.59666        1.06012
C          0.72384       -0.34182        2.47524
N          0.65504        1.07740        2.81049
C          1.03718        1.38192        4.19338
C          2.52324        1.12549        4.47699
C          0.69503        2.83000        4.51125
C          1.22456        3.89364        3.76369
C          0.91101        5.20323        4.11199
N          0.09528        5.50207        5.14478
C         -0.42556        4.47111        5.84306
C         -0.15739        3.13929        5.57252
S          1.53986        6.59945        3.20233
C          3.31802        6.20838        3.09828
C          3.99613        6.18614        4.45685
H          0.90361        1.18389        0.02223
H          0.64982       -0.22069       -1.01545
H          2.06548       -0.16014        0.04733
H         -0.85362       -0.28075        0.98863
H          0.21076       -1.67742        0.87422
H          0.11678       -0.92281        3.17922
H          1.75364       -0.71015        2.53690
H          1.24190        1.60624        2.17011
H          0.44840        0.74202        4.86376
H          3.17259        1.66541        3.77827
H          2.78808        1.45056        5.49003
H          2.76630        0.06051        4.40605
H          1.86289        3.69304        2.91227
H         -1.08829        4.75381        6.65566
H         -0.61352        2.36359        6.17897
H          3.47160        5.26120        2.57298
H          3.78096        6.98691        2.48265
H          3.61404        5.38193        5.09307
H          5.07061        6.01606        4.32895
H          3.87197        7.13789        4.98346

--Link1--
%chk=JID_5904.chk
%mem=8GB
%nprocshared=4
# B3LYP/6-311++G(d,p) empiricaldispersion=gd3bj scf=xqc pop=npa geom=check

CID_80340550_JID_5904_Energie_neutraal

0 1

--Link1--
%chk=JID_5904.chk
%mem=8GB
%nprocshared=4
# B3LYP/6-311++G(d,p) empiricaldispersion=gd3bj scf=xqc pop=npa geom=check

CID_80340550_JID_5904_Energie_kation

1 2

--Link1--
%chk=JID_5904.chk
%mem=8GB
%nprocshared=4
# B3LYP/6-311++G(d,p) empiricaldispersion=gd3bj scf=xqc pop=npa geom=check

CID_80340550_JID_5904_Energie_anion

-1 2
