%chk=JID_5126.chk
%mem=8GB
%nprocshared=4
# opt freq B3LYP/6-31G(d) empiricaldispersion=gd3bj scf=xqc

CID_12421914_JID_5126_neutraal

0 1
C          1.51300       -0.69500       -0.21300
C          1.49469        0.73014        0.32888
C          0.13753        1.32520       -0.08408
C         -0.71930        0.08283       -0.18827
N         -2.00882        0.00939       -0.30469
C         -2.76891        1.18288       -0.36808
C         -3.11730        1.87531        0.79472
C         -3.88038        3.04210        0.72111
C         -4.31533        3.51198       -0.51734
C         -3.99894        2.80935       -1.67902
C         -3.23604        1.64296       -1.60119
C          0.08354       -1.18893       -0.07367
C          0.24429        2.18954       -1.32711
S          0.34237        3.86328       -1.21734
S          0.36926        1.39913       -2.89423
H          1.81623       -0.70052       -1.26547
H          2.21854       -1.33053        0.33107
H          2.35177        1.30653       -0.03423
H          1.55919        0.69859        1.42418
H         -0.23425        1.93285        0.74998
H         -2.79449        1.50185        1.76226
H         -4.14043        3.57951        1.62915
H         -4.91094        4.41946       -0.57618
H         -4.35061        3.16456       -2.64395
H         -3.00475        1.08652       -2.50536
H         -0.09293       -1.62636        0.91409
H         -0.18906       -1.90754       -0.85030
H          0.42124        2.53309       -3.60836

--Link1--
%chk=JID_5126.chk
%mem=8GB
%nprocshared=4
# B3LYP/6-311++G(d,p) empiricaldispersion=gd3bj scf=xqc pop=npa geom=check

CID_12421914_JID_5126_Energie_neutraal

0 1

--Link1--
%chk=JID_5126.chk
%mem=8GB
%nprocshared=4
# B3LYP/6-311++G(d,p) empiricaldispersion=gd3bj scf=xqc pop=npa geom=check

CID_12421914_JID_5126_Energie_kation

1 2

--Link1--
%chk=JID_5126.chk
%mem=8GB
%nprocshared=4
# B3LYP/6-311++G(d,p) empiricaldispersion=gd3bj scf=xqc pop=npa geom=check

CID_12421914_JID_5126_Energie_anion

-1 2
