%chk=JID_4504.chk
%mem=8GB
%nprocshared=4
# opt freq B3LYP/6-31G(d) empiricaldispersion=gd3bj scf=xqc

CID_152687405_JID_4504_neutraal

0 1
C          0.93320        0.05027       -0.05488
C          0.69414       -0.51768        1.33514
C          1.06687        0.44768        2.46304
C          0.31985        1.78598        2.46710
C         -1.21128        1.69117        2.46940
C         -1.82711        0.93444        3.66547
C         -1.47369        1.53847        5.04624
C         -1.63867        3.05801        5.26389
C         -3.08384        3.54079        5.16800
C         -1.07439        3.43114        6.64119
C         -3.34570        0.75110        3.47108
N         -3.58050       -0.32824        2.49687
N         -4.20651       -0.01345        1.46930
N         -4.77695        0.27856        0.52721
H          0.27306        0.89724       -0.26295
H          0.73753       -0.71578       -0.81209
H          1.96970        0.38270       -0.16998
H         -0.35201       -0.82895        1.42778
H          1.29673       -1.42716        1.44792
H          0.91136       -0.05959        3.42239
H          2.14277        0.65704        2.40713
H          0.65627        2.36582        3.33416
H          0.62588        2.36880        1.58965
H         -1.62030        2.70819        2.42944
H         -1.53028        1.21723        1.53393
H         -1.40054       -0.07824        3.67271
H         -2.03959        1.00187        5.81994
H         -0.42143        1.29031        5.24318
H         -1.04654        3.60149        4.51924
H         -3.75461        2.92048        5.77132
H         -3.17548        4.57457        5.51947
H         -3.43435        3.53363        4.13360
H         -0.02171        3.14014        6.72332
H         -1.13145        4.51241        6.80646
H         -1.62864        2.93526        7.44543
H         -3.81627        0.44840        4.41304
H         -3.82485        1.68118        3.14891

--Link1--
%chk=JID_4504.chk
%mem=8GB
%nprocshared=4
# B3LYP/6-311++G(d,p) empiricaldispersion=gd3bj scf=xqc pop=npa geom=check

CID_152687405_JID_4504_Energie_neutraal

0 1

--Link1--
%chk=JID_4504.chk
%mem=8GB
%nprocshared=4
# B3LYP/6-311++G(d,p) empiricaldispersion=gd3bj scf=xqc pop=npa geom=check

CID_152687405_JID_4504_Energie_kation

1 2

--Link1--
%chk=JID_4504.chk
%mem=8GB
%nprocshared=4
# B3LYP/6-311++G(d,p) empiricaldispersion=gd3bj scf=xqc pop=npa geom=check

CID_152687405_JID_4504_Energie_anion

-1 2
