%chk=JID_4540.chk
%mem=8GB
%nprocshared=4
# opt freq B3LYP/6-31G(d) empiricaldispersion=gd3bj scf=xqc

CID_116794207_JID_4540_neutraal

0 1
C         -2.13100       -0.04600       -0.06100
N         -0.69304       -0.14541       -0.02726
C          0.05170       -1.27917       -0.18968
C          1.35439       -0.89894        0.02118
C          1.29557        0.49160        0.23420
N          0.04321        0.95918        0.19922
O          2.48410       -1.63995        0.02232
C          2.31588       -3.05867        0.07022
C          2.30859       -3.58984        1.50891
C          0.94606       -3.56428        2.14593
C         -0.13414       -4.38690        1.88744
C         -1.27119       -4.05438        2.67915
C         -1.01659       -3.00193        3.52883
S          0.58666       -2.42913        3.37936
H         -2.47486        0.30022        0.91687
H         -2.41006        0.66609       -0.84159
H         -2.55963       -1.02685       -0.28097
H         -0.41751       -2.22812       -0.39846
H          2.11152        1.17578        0.42270
H          1.47437       -3.41791       -0.53321
H          3.21240       -3.46167       -0.41718
H          2.64235       -4.63548        1.49642
H          3.03133       -3.03150        2.11621
H         -0.11469       -5.18594        1.15606
H         -2.22566       -4.56388        2.63181
H         -1.69058       -2.54401        4.23963

--Link1--
%chk=JID_4540.chk
%mem=8GB
%nprocshared=4
# B3LYP/6-311++G(d,p) empiricaldispersion=gd3bj scf=xqc pop=npa geom=check

CID_116794207_JID_4540_Energie_neutraal

0 1

--Link1--
%chk=JID_4540.chk
%mem=8GB
%nprocshared=4
# B3LYP/6-311++G(d,p) empiricaldispersion=gd3bj scf=xqc pop=npa geom=check

CID_116794207_JID_4540_Energie_kation

1 2

--Link1--
%chk=JID_4540.chk
%mem=8GB
%nprocshared=4
# B3LYP/6-311++G(d,p) empiricaldispersion=gd3bj scf=xqc pop=npa geom=check

CID_116794207_JID_4540_Energie_anion

-1 2
