%chk=JID_9140.chk
%mem=8GB
%nprocshared=4
# opt freq B3LYP/6-31G(d) empiricaldispersion=gd3bj scf=xqc

CID_65915165_JID_9140_neutraal

0 1
C          1.02580       -0.08247       -0.05033
N          0.32602        0.83748       -0.93492
C         -1.13209        0.66376       -0.92004
C         -1.74341        1.51203       -2.04890
C         -1.67426        3.01469       -1.76812
C         -2.30470        3.42881       -0.41121
C         -1.70677        2.54647        0.70528
C         -1.79325        1.04913        0.41231
C         -3.89989        3.41621       -0.47265
C         -4.62870        3.48230        0.86642
C         -5.03098        2.32199        1.54527
C         -5.66231        2.40589        2.78746
C         -5.90916        3.64984        3.36207
C         -5.54821        4.81276        2.68465
C         -4.93295        4.73243        1.42981
C         -4.56998        5.96728        0.65867
C         -4.72569        5.75360       -0.85741
N         -4.45971        4.42008       -1.39991
O         -1.82829        4.76468       -0.15839
H          0.75433       -1.12256       -0.25728
H          0.83767        0.13673        1.00450
H          2.10379        0.01143       -0.21585
H          0.58074        1.79363       -0.68945
H         -1.35849       -0.38765       -1.13873
H         -2.78860        1.21401       -2.19580
H         -1.23582        1.29763       -2.99824
H         -2.13585        3.55963       -2.59876
H         -0.62463        3.33857       -1.78865
H         -0.65406        2.82282        0.85566
H         -2.17355        2.76822        1.67129
H         -2.84229        0.73978        0.37288
H         -1.35508        0.48912        1.24557
H         -4.18597        2.45106       -0.90895
H         -4.86183        1.34052        1.11257
H         -5.96127        1.49918        3.30661
H         -6.39475        3.71439        4.33193
H         -5.76022        5.78012        3.13272
H         -3.54007        6.24353        0.90823
H         -5.20630        6.80811        0.96028
H         -4.10311        6.49117       -1.37807
H         -5.75996        5.99700       -1.13135
H         -3.98790        4.45105       -2.29672
H         -2.19521        5.32401       -0.86297

--Link1--
%chk=JID_9140.chk
%mem=8GB
%nprocshared=4
# B3LYP/6-311++G(d,p) empiricaldispersion=gd3bj scf=xqc pop=npa geom=check

CID_65915165_JID_9140_Energie_neutraal

0 1

--Link1--
%chk=JID_9140.chk
%mem=8GB
%nprocshared=4
# B3LYP/6-311++G(d,p) empiricaldispersion=gd3bj scf=xqc pop=npa geom=check

CID_65915165_JID_9140_Energie_kation

1 2

--Link1--
%chk=JID_9140.chk
%mem=8GB
%nprocshared=4
# B3LYP/6-311++G(d,p) empiricaldispersion=gd3bj scf=xqc pop=npa geom=check

CID_65915165_JID_9140_Energie_anion

-1 2
