%chk=JID_6916.chk
%mem=8GB
%nprocshared=4
# opt freq B3LYP/6-31G(d) empiricaldispersion=gd3bj scf=xqc

CID_149669665_JID_6916_neutraal

0 1
C         -0.70100       -0.96500       -0.00200
C          0.24708       -0.74390       -0.96813
O          0.54498        0.58469       -0.97003
C         -0.25161        1.10234        0.01600
N         -1.01464        0.21489        0.62249
C         -0.14880        2.56319        0.25958
C          0.76178        2.89716        1.44313
C          2.24233        2.54082        1.25367
C          2.93533        3.19732        0.05489
C          2.89710        4.72850        0.02804
C          3.51875        5.42543        1.24288
C          4.98759        5.08510        1.52522
C          5.94848        5.40906        0.38418
C          6.00738        6.88477        0.10410
O          6.26021        7.76612        0.90803
O          5.74169        7.18294       -1.18104
H         -1.16910       -1.89873        0.27575
H          0.77323       -1.35920       -1.68217
H          0.18343        3.07873       -0.64765
H         -1.15446        2.94423        0.47568
H          0.67256        3.96776        1.66167
H          0.39774        2.37559        2.33809
H          2.78049        2.80464        2.17196
H          2.34330        1.45286        1.15704
H          3.97817        2.85927        0.03008
H          2.48718        2.82372       -0.87331
H          3.39912        5.07201       -0.88419
H          1.85784        5.06439       -0.06933
H          3.42092        6.50923        1.10370
H          2.93079        5.18908        2.13765
H          5.29654        5.63440        2.42372
H          5.07807        4.02159        1.77374
H          6.96364        5.08766        0.64377
H          5.67392        4.86467       -0.52514
H          5.81018        8.16014       -1.21646

--Link1--
%chk=JID_6916.chk
%mem=8GB
%nprocshared=4
# B3LYP/6-311++G(d,p) empiricaldispersion=gd3bj scf=xqc pop=npa geom=check

CID_149669665_JID_6916_Energie_neutraal

0 1

--Link1--
%chk=JID_6916.chk
%mem=8GB
%nprocshared=4
# B3LYP/6-311++G(d,p) empiricaldispersion=gd3bj scf=xqc pop=npa geom=check

CID_149669665_JID_6916_Energie_kation

1 2

--Link1--
%chk=JID_6916.chk
%mem=8GB
%nprocshared=4
# B3LYP/6-311++G(d,p) empiricaldispersion=gd3bj scf=xqc pop=npa geom=check

CID_149669665_JID_6916_Energie_anion

-1 2
