%chk=JID_9312.chk
%mem=8GB
%nprocshared=4
# opt freq B3LYP/6-31G(d) empiricaldispersion=gd3bj scf=xqc

CID_340479_JID_9312_neutraal

0 1
C          0.96719       -0.08162       -0.04756
C          1.49167       -1.29840       -0.78497
O          1.50852       -2.39896        0.13047
C          1.83137       -3.59178       -0.44007
O          2.16308       -3.74370       -1.60878
N          1.77922       -4.63825        0.45232
N          1.09094       -4.50633        1.68300
C          1.92636       -4.72154        2.86944
C          1.78024       -3.61521        3.91372
O          2.13432       -3.77427        5.08575
C          1.39970       -2.22941        3.44823
C          1.75733       -6.17550        3.31277
O          1.72668       -7.08859        2.47644
C          1.66532       -6.51409        4.77591
C         -0.29200       -4.61207        1.67024
O         -0.97410       -4.62098        0.65319
O         -0.79722       -4.68437        2.93338
C         -2.22675       -4.77996        3.03191
C         -2.83836       -3.39169        3.04255
H         -0.03947       -0.27060        0.33998
H          0.93489        0.79043       -0.70653
H          1.60140        0.14972        0.81465
H          0.83581       -1.52367       -1.63358
H          2.50881       -1.10647       -1.14376
H          1.78700       -5.56734        0.03788
H          2.97608       -4.63560        2.55168
H          2.15636       -1.85804        2.75344
H          0.41377       -2.22704        2.98160
H          1.36024       -1.55662        4.31048
H          2.60153       -6.26175        5.27837
H          0.81755       -5.99590        5.22993
H          1.49781       -7.58994        4.88792
H         -2.64396       -5.39882        2.22945
H         -2.44774       -5.28702        3.97680
H         -2.62612       -2.86155        2.10869
H         -3.92244       -3.44597        3.17546
H         -2.41228       -2.79075        3.85277

--Link1--
%chk=JID_9312.chk
%mem=8GB
%nprocshared=4
# B3LYP/6-311++G(d,p) empiricaldispersion=gd3bj scf=xqc pop=npa geom=check

CID_340479_JID_9312_Energie_neutraal

0 1

--Link1--
%chk=JID_9312.chk
%mem=8GB
%nprocshared=4
# B3LYP/6-311++G(d,p) empiricaldispersion=gd3bj scf=xqc pop=npa geom=check

CID_340479_JID_9312_Energie_kation

1 2

--Link1--
%chk=JID_9312.chk
%mem=8GB
%nprocshared=4
# B3LYP/6-311++G(d,p) empiricaldispersion=gd3bj scf=xqc pop=npa geom=check

CID_340479_JID_9312_Energie_anion

-1 2
