%chk=JID_8590.chk
%mem=8GB
%nprocshared=4
# opt freq B3LYP/6-31G(d) empiricaldispersion=gd3bj scf=xqc

CID_57901459_JID_8590_neutraal

0 1
C          1.03038        0.08190        0.04868
C          0.38710       -0.34697        1.35432
C          0.69647       -1.81098        1.64101
O          0.40325       -2.14970        2.99578
C          1.46024       -1.81828        3.90375
C          2.33759       -3.03028        4.23614
O          3.30339       -3.28944        3.21273
C          3.04110       -4.21500        2.24330
C          4.04934       -4.34826        1.29067
C          3.89277       -5.22176        0.21792
C          2.71969       -5.97049        0.08399
C          1.69355       -5.84826        1.01703
C          1.87551       -4.97175        2.10391
N          0.47220       -6.54657        0.99453
C         -0.17118       -7.35500        0.11138
O         -1.21629       -7.89121        0.50029
C          0.28632       -7.57435       -1.30878
C          0.09538       -6.33721       -2.16704
H          2.12135        0.00939        0.10626
H          0.77350        1.12172       -0.17673
H          0.68731       -0.54025       -0.78424
H          0.73786        0.29950        2.16562
H         -0.69935       -0.20687        1.30489
H          0.06941       -2.44424        1.00342
H          1.73831       -2.03675        1.40079
H          2.06704       -0.98814        3.52455
H          0.97208       -1.48237        4.82460
H          2.92520       -2.77675        5.12618
H          1.75005       -3.91294        4.50404
H          4.95983       -3.76047        1.37984
H          4.68705       -5.32108       -0.51808
H          2.67089       -6.64324       -0.75854
H          1.06403       -4.86001        2.81551
H         -0.09154       -6.45959        1.83428
H          1.30543       -7.96084       -1.33369
H         -0.33025       -8.38056       -1.72749
H          0.68172       -5.48694       -1.81007
H          0.38956       -6.54345       -3.20071
H         -0.95570       -6.02822       -2.16877

--Link1--
%chk=JID_8590.chk
%mem=8GB
%nprocshared=4
# B3LYP/6-311++G(d,p) empiricaldispersion=gd3bj scf=xqc pop=npa geom=check

CID_57901459_JID_8590_Energie_neutraal

0 1

--Link1--
%chk=JID_8590.chk
%mem=8GB
%nprocshared=4
# B3LYP/6-311++G(d,p) empiricaldispersion=gd3bj scf=xqc pop=npa geom=check

CID_57901459_JID_8590_Energie_kation

1 2

--Link1--
%chk=JID_8590.chk
%mem=8GB
%nprocshared=4
# B3LYP/6-311++G(d,p) empiricaldispersion=gd3bj scf=xqc pop=npa geom=check

CID_57901459_JID_8590_Energie_anion

-1 2
