%chk=JID_1294.chk
%mem=8GB
%nprocshared=4
# opt freq B3LYP/6-31G(d) empiricaldispersion=gd3bj scf=xqc

CID_58369901_JID_1294_neutraal

0 1
C          0.92323       -0.01373       -0.06259
C          0.58667        1.38027       -0.56814
C          0.92056        1.59292       -2.04632
C          0.21147        0.65243       -3.02830
C         -1.32115        0.67330       -2.98400
N         -1.84479        1.98697       -3.35216
C         -3.28801        2.00364       -3.46482
C         -4.08025        1.84715       -2.15701
C         -3.69993        2.76984       -0.99058
C         -3.88545        4.25291       -1.26554
O         -3.61653        3.23157       -4.07355
H          0.29519       -0.77450       -0.53529
H          0.75625       -0.07164        1.01782
H          1.97197       -0.25966       -0.25669
H         -0.47121        1.58998       -0.38118
H          1.15441        2.11065        0.02107
H          0.69738        2.63381       -2.30925
H          2.00319        1.47499       -2.18255
H          0.54216        0.90538       -4.04439
H          0.55083       -0.37575       -2.85401
H         -1.68368       -0.07840       -3.69583
H         -1.66874        0.37279       -1.99031
H         -1.56732        2.67739       -2.65695
H         -3.61525        1.22395       -4.16294
H         -5.14392        2.00823       -2.37671
H         -3.98869        0.81137       -1.80724
H         -4.32911        2.50124       -0.13273
H         -2.66699        2.58435       -0.67884
H         -4.89001        4.46232       -1.64586
H         -3.74838        4.82423       -0.34153
H         -3.15162        4.62244       -1.98713
H         -2.87288        3.37727       -4.68339

--Link1--
%chk=JID_1294.chk
%mem=8GB
%nprocshared=4
# B3LYP/6-311++G(d,p) empiricaldispersion=gd3bj scf=xqc pop=npa geom=check

CID_58369901_JID_1294_Energie_neutraal

0 1

--Link1--
%chk=JID_1294.chk
%mem=8GB
%nprocshared=4
# B3LYP/6-311++G(d,p) empiricaldispersion=gd3bj scf=xqc pop=npa geom=check

CID_58369901_JID_1294_Energie_kation

1 2

--Link1--
%chk=JID_1294.chk
%mem=8GB
%nprocshared=4
# B3LYP/6-311++G(d,p) empiricaldispersion=gd3bj scf=xqc pop=npa geom=check

CID_58369901_JID_1294_Energie_anion

-1 2
