%chk=JID_10504.chk
%mem=8GB
%nprocshared=4
# opt freq B3LYP/6-31G(d) empiricaldispersion=gd3bj scf=xqc

CID_111608500_JID_10504_neutraal

0 1
C         -2.24300       -0.04000       -0.00500
C         -0.80468        0.06418       -0.31001
N         -0.12998       -0.91369       -0.92849
O          1.16229       -0.39402       -1.02828
C          1.12378        0.84481       -0.45672
N         -0.06027        1.17096        0.00655
C          2.38122        1.62809       -0.46932
C          2.56948        2.39028       -1.78268
C          1.60025        3.56297       -1.96555
N          2.01822        4.70802       -1.16246
C          1.26336        5.84183       -1.05912
N          1.16579        6.63095       -0.04550
C          1.94905        6.34763        1.14488
N          0.50548        6.15610       -2.14534
C          1.15734        6.58565       -3.39037
C          0.20841        6.45778       -4.62108
C         -1.09097        7.24239       -4.37973
C          0.94679        7.03451       -5.84092
O         -0.02592        5.04999       -4.82766
C         -1.01248        4.69070       -5.78118
H         -2.59802        0.85527        0.51479
H         -2.82453       -0.15087       -0.92544
H         -2.43952       -0.90471        0.63635
H          2.39652        2.31314        0.38518
H          3.22605        0.94190       -0.33377
H          3.60146        2.75994       -1.83322
H          2.44081        1.69609       -2.62323
H          1.61684        3.83385       -3.02503
H          0.57392        3.27528       -1.71524
H          2.43437        4.44608       -0.28083
H          1.63020        5.41394        1.61955
H          3.02084        6.30543        0.92412
H          1.79865        7.15258        1.87111
H         -0.13306        6.88686       -1.84226
H          1.48075        7.62699       -3.26755
H          2.05794        5.98661       -3.56985
H         -0.88281        8.26845       -4.05796
H         -1.69637        7.30168       -5.29117
H         -1.71570        6.75620       -3.62265
H          1.83146        6.43330       -6.07937
H          0.31534        7.03203       -6.73527
H          1.26419        8.06806       -5.66540
H         -2.01023        4.97664       -5.43793
H         -0.80595        5.12544       -6.76167
H         -0.99739        3.60186       -5.88509

--Link1--
%chk=JID_10504.chk
%mem=8GB
%nprocshared=4
# B3LYP/6-311++G(d,p) empiricaldispersion=gd3bj scf=xqc pop=npa geom=check

CID_111608500_JID_10504_Energie_neutraal

0 1

--Link1--
%chk=JID_10504.chk
%mem=8GB
%nprocshared=4
# B3LYP/6-311++G(d,p) empiricaldispersion=gd3bj scf=xqc pop=npa geom=check

CID_111608500_JID_10504_Energie_kation

1 2

--Link1--
%chk=JID_10504.chk
%mem=8GB
%nprocshared=4
# B3LYP/6-311++G(d,p) empiricaldispersion=gd3bj scf=xqc pop=npa geom=check

CID_111608500_JID_10504_Energie_anion

-1 2
