%chk=JID_8841.chk
%mem=8GB
%nprocshared=4
# opt freq B3LYP/6-31G(d) empiricaldispersion=gd3bj scf=xqc

CID_108212793_JID_8841_neutraal

0 1
C          2.49200        0.00400       -0.01400
C          1.00752       -0.17518       -0.12593
C          0.46770       -1.42453       -0.44899
C         -0.92525       -1.62426       -0.53323
C         -1.79733       -0.55395       -0.25329
C         -1.24410        0.69360        0.08193
C          0.13892        0.88083        0.14958
N         -3.19354       -0.75744       -0.32607
C         -3.76837       -0.07299       -1.51082
C         -5.25456       -0.43114       -1.67343
C         -6.05763       -0.19896       -0.38578
C         -5.35986       -0.92420        0.75368
C         -3.92270       -0.41784        0.90395
C         -3.49081       -1.14754        2.17103
C         -4.74222       -1.12231        3.06386
C         -5.91795       -0.73691        2.15396
C         -1.43735       -3.00427       -0.86907
O         -0.80967       -3.49805       -2.05286
H          2.82892       -0.28004        0.98767
H          3.01452       -0.61221       -0.75325
H          2.77703        1.04492       -0.19967
H          1.13410       -2.26555       -0.63971
H         -1.89039        1.54015        0.29558
H          0.52950        1.85855        0.42130
H         -3.23511       -0.37847       -2.42001
H         -3.67185        1.01662       -1.41555
H         -5.68836        0.15479       -2.49134
H         -5.33715       -1.48810       -1.95758
H         -6.12246        0.87599       -0.17879
H         -7.08068       -0.57066       -0.50889
H         -5.35528       -2.00102        0.52305
H         -3.92046        0.66803        1.08020
H         -2.63679       -0.66819        2.65990
H         -3.20798       -2.18563        1.95620
H         -4.63489       -0.39345        3.87442
H         -4.90131       -2.10444        3.52198
H         -6.20016        0.30787        2.33007
H         -6.79915       -1.35891        2.33796
H         -1.21920       -3.69254       -0.04597
H         -2.51552       -3.02656       -1.04726
H         -0.74934       -2.73931       -2.65845

--Link1--
%chk=JID_8841.chk
%mem=8GB
%nprocshared=4
# B3LYP/6-311++G(d,p) empiricaldispersion=gd3bj scf=xqc pop=npa geom=check

CID_108212793_JID_8841_Energie_neutraal

0 1

--Link1--
%chk=JID_8841.chk
%mem=8GB
%nprocshared=4
# B3LYP/6-311++G(d,p) empiricaldispersion=gd3bj scf=xqc pop=npa geom=check

CID_108212793_JID_8841_Energie_kation

1 2

--Link1--
%chk=JID_8841.chk
%mem=8GB
%nprocshared=4
# B3LYP/6-311++G(d,p) empiricaldispersion=gd3bj scf=xqc pop=npa geom=check

CID_108212793_JID_8841_Energie_anion

-1 2
