%chk=JID_9914.chk
%mem=8GB
%nprocshared=4
# opt freq B3LYP/6-31G(d) empiricaldispersion=gd3bj scf=xqc

CID_102871187_JID_9914_neutraal

0 1
C          0.93165       -0.07158       -0.01430
C          2.30211       -0.31314       -0.65087
C          2.50179        0.56852       -1.88625
C          2.92526        1.99340       -1.54092
C          4.22623        1.98586       -0.73349
C          4.11104        1.17409        0.57382
C          3.47486       -0.21380        0.34462
C          3.40040        1.93916        1.69970
O          2.16942        2.01073        1.73121
N          4.18181        2.60268        2.65804
C          3.46104        3.47018        3.59616
C          2.90188        2.68444        4.78385
C          2.17556        3.58757        5.77025
O          1.09235        4.26274        5.14798
C          5.66505        2.47353        2.76118
C          6.39754        3.13119        3.96654
C          7.32756        1.90237        3.97393
C          6.15740        1.11802        3.34866
N          4.71761        3.35394       -0.53827
H          0.83716       -0.60125        0.93897
H          0.14203       -0.44599       -0.67614
H          0.72339        0.98726        0.15014
H          2.27724       -1.35647       -0.99644
H          3.27602        0.11632       -2.51997
H          1.58703        0.59227       -2.49059
H          2.12777        2.50860       -0.99318
H          3.06888        2.54770       -2.47724
H          4.98451        1.48216       -1.34888
H          5.13132        0.96377        0.90151
H          3.19406       -0.66568        1.30441
H          4.27268       -0.85576       -0.05701
H          4.11925        4.27964        3.92653
H          2.64284        3.96066        3.05445
H          2.20698        1.91965        4.41686
H          3.70835        2.15570        5.30371
H          1.77986        3.00045        6.60501
H          2.85510        4.34114        6.18061
H          0.53686        3.59266        4.70987
H          6.15295        2.74515        1.81606
H          6.88599        4.08680        3.75750
H          5.83103        3.22172        4.89919
H          7.65956        1.56008        4.95701
H          8.19794        2.00067        3.31504
H          5.48297        0.66744        4.08653
H          6.45396        0.35102        2.62898
H          4.80216        3.81639       -1.44410
H          4.01915        3.89704       -0.02605

--Link1--
%chk=JID_9914.chk
%mem=8GB
%nprocshared=4
# B3LYP/6-311++G(d,p) empiricaldispersion=gd3bj scf=xqc pop=npa geom=check

CID_102871187_JID_9914_Energie_neutraal

0 1

--Link1--
%chk=JID_9914.chk
%mem=8GB
%nprocshared=4
# B3LYP/6-311++G(d,p) empiricaldispersion=gd3bj scf=xqc pop=npa geom=check

CID_102871187_JID_9914_Energie_kation

1 2

--Link1--
%chk=JID_9914.chk
%mem=8GB
%nprocshared=4
# B3LYP/6-311++G(d,p) empiricaldispersion=gd3bj scf=xqc pop=npa geom=check

CID_102871187_JID_9914_Energie_anion

-1 2
