%chk=JID_4908.chk
%mem=8GB
%nprocshared=4
# opt freq B3LYP/6-31G(d) empiricaldispersion=gd3bj scf=xqc

CID_58436715_JID_4908_neutraal

0 1
C          1.07517        0.04506        0.04817
C          0.48006        0.48912        1.35712
O         -0.51794        1.21624        1.36352
C          1.06239       -0.02258        2.67708
C          0.30528       -1.25896        3.16701
C          0.85497       -2.57965        2.62928
C          2.38057       -2.75099        2.83285
C          3.09516       -1.53370        2.20221
C          2.58422       -0.18303        2.70619
C          2.75961       -2.87963        4.33131
C          2.31205       -4.20704        4.94820
N          2.83659       -5.35472        4.20891
C          2.41522       -5.32031        2.80913
C          2.86731       -4.03561        2.11225
H          0.51632        0.50166       -0.77476
H          1.00227       -1.03844       -0.05388
H          2.11273        0.37535       -0.02956
H          0.83655        0.79240        3.38177
H          0.33952       -1.28112        4.26306
H         -0.75746       -1.18598        2.90402
H          0.62222       -2.64402        1.55915
H          0.29881       -3.39805        3.09908
H          2.98921       -1.57714        1.11243
H          4.17491       -1.59112        2.39249
H          3.06587        0.62143        2.13765
H          2.92243       -0.05647        3.74286
H          3.85110       -2.80348        4.43482
H          2.34541       -2.05656        4.92284
H          1.21947       -4.26459        5.00731
H          2.67607       -4.26273        5.98039
H          3.85600       -5.33663        4.24878
H          1.32851       -5.44309        2.74055
H          2.85250       -6.18176        2.29179
H          2.51638       -4.04665        1.07267
H          3.96520       -4.03338        2.06505

--Link1--
%chk=JID_4908.chk
%mem=8GB
%nprocshared=4
# B3LYP/6-311++G(d,p) empiricaldispersion=gd3bj scf=xqc pop=npa geom=check

CID_58436715_JID_4908_Energie_neutraal

0 1

--Link1--
%chk=JID_4908.chk
%mem=8GB
%nprocshared=4
# B3LYP/6-311++G(d,p) empiricaldispersion=gd3bj scf=xqc pop=npa geom=check

CID_58436715_JID_4908_Energie_kation

1 2

--Link1--
%chk=JID_4908.chk
%mem=8GB
%nprocshared=4
# B3LYP/6-311++G(d,p) empiricaldispersion=gd3bj scf=xqc pop=npa geom=check

CID_58436715_JID_4908_Energie_anion

-1 2
