%chk=JID_7472.chk
%mem=8GB
%nprocshared=4
# opt freq B3LYP/6-31G(d) empiricaldispersion=gd3bj scf=xqc

CID_55032221_JID_7472_neutraal

0 1
C          0.65300       -1.21900        0.25200
C         -0.82360       -1.28106       -0.17276
N         -1.64869       -0.36152        0.61182
C         -1.12420        1.00596        0.60024
C          0.36017        1.04909        1.00420
N          1.20684        0.14793        0.19651
C         -3.02696       -0.47575        0.47852
O         -3.70713        0.42596       -0.00714
N         -3.58832       -1.62466        1.01213
C         -5.03298       -1.76512        1.01555
C         -5.38025       -1.85650        2.49628
C         -4.22101       -2.66361        3.07244
C         -3.01670       -2.32130        2.17935
C         -2.29473       -3.62917        1.86081
O         -1.56025       -4.23693        2.62555
O         -2.63215       -4.18677        0.67917
O         -6.62177       -2.49308        2.74701
H          0.76286       -1.60757        1.27200
H          1.24821       -1.86645       -0.40096
H         -1.19628       -2.30086       -0.09569
H         -0.92607       -0.99708       -1.22878
H         -1.25768        1.41956       -0.40787
H         -1.71709        1.61742        1.29069
H          0.46330        0.77568        2.06160
H          0.73667        2.07280        0.90341
H          1.17599        0.46792       -0.77248
H         -5.56199       -0.94721        0.51834
H         -5.28527       -2.69459        0.49166
H         -5.39992       -0.85709        2.94627
H         -4.45326       -3.73634        3.07103
H         -4.03284       -2.39148        4.11722
H         -2.31642       -1.65661        2.69671
H         -2.14729       -5.03836        0.66492
H         -6.62963       -3.35299        2.29254

--Link1--
%chk=JID_7472.chk
%mem=8GB
%nprocshared=4
# B3LYP/6-311++G(d,p) empiricaldispersion=gd3bj scf=xqc pop=npa geom=check

CID_55032221_JID_7472_Energie_neutraal

0 1

--Link1--
%chk=JID_7472.chk
%mem=8GB
%nprocshared=4
# B3LYP/6-311++G(d,p) empiricaldispersion=gd3bj scf=xqc pop=npa geom=check

CID_55032221_JID_7472_Energie_kation

1 2

--Link1--
%chk=JID_7472.chk
%mem=8GB
%nprocshared=4
# B3LYP/6-311++G(d,p) empiricaldispersion=gd3bj scf=xqc pop=npa geom=check

CID_55032221_JID_7472_Energie_anion

-1 2
