%chk=JID_8872.chk
%mem=8GB
%nprocshared=4
# opt freq B3LYP/6-31G(d) empiricaldispersion=gd3bj scf=xqc

CID_18716072_JID_8872_neutraal

0 1
C          0.97940        0.05173        0.08306
C          1.03664        0.41245        1.54211
O          0.89543        1.57317        1.92780
N          1.25474       -0.59178        2.45718
N          1.48435       -1.94917        2.16378
C          0.46858       -2.82511        2.76545
C         -0.76810       -2.97023        1.91008
C         -1.76001       -1.98273        1.90696
C         -2.88681       -2.10997        1.08822
C         -3.06875       -3.23361        0.26576
C         -2.06717       -4.21834        0.27538
C         -0.92936       -4.08661        1.07946
C         -4.26785       -3.35926       -0.57865
C         -5.01019       -4.53820       -0.65047
C         -6.13581       -4.58374       -1.47026
C         -6.48988       -3.45779       -2.20131
C         -5.70511       -2.32534       -2.07401
N         -4.61497       -2.24992       -1.27932
H          0.76960        0.95128       -0.50348
H          0.18128       -0.67035       -0.10280
H          1.94153       -0.35361       -0.24098
H          1.34236       -0.27521        3.42072
H          1.51110       -2.12028        1.15723
H          0.92222       -3.81395        2.90593
H          0.19342       -2.48735        3.77308
H         -1.65938       -1.09771        2.53189
H         -3.63707       -1.32016        1.09272
H         -2.15471       -5.09334       -0.36569
H         -0.17013       -4.86551        1.04938
H         -4.73198       -5.40777       -0.06401
H         -6.73137       -5.48989       -1.53336
H         -7.35742       -3.46019       -2.85134
H         -5.93789       -1.41821       -2.62436

--Link1--
%chk=JID_8872.chk
%mem=8GB
%nprocshared=4
# B3LYP/6-311++G(d,p) empiricaldispersion=gd3bj scf=xqc pop=npa geom=check

CID_18716072_JID_8872_Energie_neutraal

0 1

--Link1--
%chk=JID_8872.chk
%mem=8GB
%nprocshared=4
# B3LYP/6-311++G(d,p) empiricaldispersion=gd3bj scf=xqc pop=npa geom=check

CID_18716072_JID_8872_Energie_kation

1 2

--Link1--
%chk=JID_8872.chk
%mem=8GB
%nprocshared=4
# B3LYP/6-311++G(d,p) empiricaldispersion=gd3bj scf=xqc pop=npa geom=check

CID_18716072_JID_8872_Energie_anion

-1 2
