%chk=JID_2904.chk
%mem=8GB
%nprocshared=4
# opt freq B3LYP/6-31G(d) empiricaldispersion=gd3bj scf=xqc

CID_104170754_JID_2904_neutraal

0 1
C          0.92667       -0.02512       -0.06318
C          0.29374       -1.13531       -0.91921
C          1.16493       -2.39034       -0.78857
C         -1.25796       -1.33235       -0.66385
C         -1.98635       -0.08672       -1.25548
C         -1.81758       -2.55873       -1.47007
C         -1.71892       -3.98461       -0.88218
C         -2.92161       -4.38820       -0.02515
O         -1.51378       -4.94424       -1.93986
C         -2.59192       -5.12548       -2.84675
C         -1.63573       -1.36847        0.83511
O         -0.93204       -2.36942        1.54752
H          0.94919       -0.29561        0.99725
H          0.39792        0.92570       -0.16580
H          1.96221        0.15348       -0.37507
H          0.40340       -0.81433       -1.96546
H          1.12948       -2.81791        0.21633
H          0.87687       -3.15662       -1.51313
H          2.21386       -2.15024       -0.99921
H         -1.77172        0.02700       -2.32419
H         -3.07375       -0.17573       -1.14451
H         -1.69414        0.84089       -0.75414
H         -2.87993       -2.37787       -1.68710
H         -1.33401       -2.54736       -2.45742
H         -0.82632       -4.07871       -0.26182
H         -3.86600       -4.23389       -0.55763
H         -2.86779       -5.45297        0.22733
H         -2.97461       -3.82405        0.90739
H         -3.43585       -5.61693       -2.35561
H         -2.91033       -4.18010       -3.29309
H         -2.24726       -5.78141       -3.65133
H         -1.41985       -0.40710        1.31481
H         -2.71019       -1.54587        0.95562
H         -1.17372       -2.28212        2.48569

--Link1--
%chk=JID_2904.chk
%mem=8GB
%nprocshared=4
# B3LYP/6-311++G(d,p) empiricaldispersion=gd3bj scf=xqc pop=npa geom=check

CID_104170754_JID_2904_Energie_neutraal

0 1

--Link1--
%chk=JID_2904.chk
%mem=8GB
%nprocshared=4
# B3LYP/6-311++G(d,p) empiricaldispersion=gd3bj scf=xqc pop=npa geom=check

CID_104170754_JID_2904_Energie_kation

1 2

--Link1--
%chk=JID_2904.chk
%mem=8GB
%nprocshared=4
# B3LYP/6-311++G(d,p) empiricaldispersion=gd3bj scf=xqc pop=npa geom=check

CID_104170754_JID_2904_Energie_anion

-1 2
