%chk=JID_6487.chk
%mem=8GB
%nprocshared=4
# opt freq B3LYP/6-31G(d) empiricaldispersion=gd3bj scf=xqc

CID_61336566_JID_6487_neutraal

0 1
C          0.94037       -0.06435       -0.04799
C          0.45830       -1.47888       -0.34140
C          0.83382       -2.50245        0.75175
C          0.30640       -2.14604        2.15949
C         -1.20756       -2.00714        2.26143
C          0.45966       -3.90990        0.38147
N         -0.50623       -4.22789       -0.48970
N         -0.48861       -5.56740       -0.43789
C          0.44448       -6.02421        0.45008
N          1.06910       -4.98963        0.96972
C          0.64424       -7.48044        0.74095
C          2.00287       -7.98185        0.23026
C          3.17774       -7.57613        1.11958
C          2.94497       -7.96554        2.57503
C          1.63442       -7.39893        3.10890
C          0.44557       -7.79431        2.23255
H          0.42521        0.36561        0.81571
H          0.74093        0.58469       -0.90687
H          2.01758       -0.04825        0.14494
H         -0.62622       -1.45872       -0.50290
H          0.90115       -1.79748       -1.29448
H          1.93156       -2.49563        0.82292
H          0.62942       -2.91518        2.87343
H          0.76806       -1.21146        2.49906
H         -1.71685       -2.92990        1.96832
H         -1.49092       -1.78633        3.29581
H         -1.58012       -1.19068        1.63651
H         -1.13593       -6.09466       -1.01180
H         -0.13246       -8.03014        0.19043
H          1.97179       -9.07869        0.18524
H          2.18358       -7.63393       -0.79427
H          3.34569       -6.49532        1.04972
H          4.09223       -8.05837        0.75523
H          3.77859       -7.60809        3.19001
H          2.93115       -9.05901        2.66215
H          1.70657       -6.30754        3.17623
H          1.46924       -7.76193        4.13000
H         -0.46298       -7.31011        2.61172
H          0.28896       -8.87593        2.33973

--Link1--
%chk=JID_6487.chk
%mem=8GB
%nprocshared=4
# B3LYP/6-311++G(d,p) empiricaldispersion=gd3bj scf=xqc pop=npa geom=check

CID_61336566_JID_6487_Energie_neutraal

0 1

--Link1--
%chk=JID_6487.chk
%mem=8GB
%nprocshared=4
# B3LYP/6-311++G(d,p) empiricaldispersion=gd3bj scf=xqc pop=npa geom=check

CID_61336566_JID_6487_Energie_kation

1 2

--Link1--
%chk=JID_6487.chk
%mem=8GB
%nprocshared=4
# B3LYP/6-311++G(d,p) empiricaldispersion=gd3bj scf=xqc pop=npa geom=check

CID_61336566_JID_6487_Energie_anion

-1 2
