%chk=JID_10312.chk
%mem=8GB
%nprocshared=4
# opt freq B3LYP/6-31G(d) empiricaldispersion=gd3bj scf=xqc

CID_152136184_JID_10312_neutraal

0 1
C          1.34400       -0.22500        0.03600
C          0.91574        1.09971        0.04975
C         -0.45027        1.39348        0.02485
C         -1.41176        0.36952       -0.01297
C         -0.95758       -0.95995       -0.02577
C          0.40824       -1.25546       -0.00223
C         -2.85031        0.68107       -0.03763
C         -3.38571        1.55780       -0.99655
C         -4.75951        1.88196       -1.04212
C         -5.62126        1.29443       -0.09198
C         -5.09236        0.42332        0.87221
C         -3.72845        0.11976        0.89669
S         -7.38719        1.63506       -0.05734
O         -7.94183        0.08109        0.15680
C         -5.21976        2.81402       -2.08446
C         -5.32452        2.39792       -3.42139
C         -5.74201        3.28550       -4.41587
C         -6.05785        4.60210       -4.08737
C         -5.95497        5.03282       -2.76640
C         -5.53581        4.14565       -1.77242
H          2.40620       -0.45414        0.05519
H          1.64302        1.90671        0.08273
H         -0.76264        2.43577        0.04785
H         -1.67083       -1.78074       -0.06628
H          0.73927       -2.29058       -0.01595
H         -2.71901        2.00292       -1.73598
H         -5.74340       -0.02439        1.62092
H         -3.35414       -0.55099        1.66774
H         -8.12563       -0.33618       -0.71831
H         -5.07982        1.37343       -3.69393
H         -5.81936        2.94872       -5.44627
H         -6.38341        5.29303       -4.86056
H         -6.20043        6.05943       -2.50753
H         -5.45751        4.49790       -0.74571

--Link1--
%chk=JID_10312.chk
%mem=8GB
%nprocshared=4
# B3LYP/6-311++G(d,p) empiricaldispersion=gd3bj scf=xqc pop=npa geom=check

CID_152136184_JID_10312_Energie_neutraal

0 1

--Link1--
%chk=JID_10312.chk
%mem=8GB
%nprocshared=4
# B3LYP/6-311++G(d,p) empiricaldispersion=gd3bj scf=xqc pop=npa geom=check

CID_152136184_JID_10312_Energie_kation

1 2

--Link1--
%chk=JID_10312.chk
%mem=8GB
%nprocshared=4
# B3LYP/6-311++G(d,p) empiricaldispersion=gd3bj scf=xqc pop=npa geom=check

CID_152136184_JID_10312_Energie_anion

-1 2
