%chk=JID_6090.chk
%mem=8GB
%nprocshared=4
# opt freq B3LYP/6-31G(d) empiricaldispersion=gd3bj scf=xqc

CID_62063416_JID_6090_neutraal

0 1
C          1.01372        0.09901       -0.00299
C          0.73980        0.72382       -1.35947
N          0.71290       -0.29496       -2.39179
C         -0.12603       -0.39495       -3.45203
O          0.21983       -1.04487       -4.43442
N         -1.28425        0.30668       -3.43703
C         -2.41011       -0.35209       -3.00316
O         -3.32422       -0.55979       -3.80391
C         -2.50130       -0.73076       -1.52424
N         -2.62200       -2.17960       -1.31754
C         -1.43906       -2.94477       -1.70724
C         -1.72715       -4.29709       -1.08292
C         -2.35380       -3.94500        0.26861
C         -2.86117       -2.50716        0.09346
C         -3.46148       -4.90606        0.70041
N         -2.94260       -6.25240        0.92942
H          1.97466       -0.42665       -0.00317
H          0.24232       -0.62681        0.27045
H          1.04805        0.87118        0.77157
H         -0.19049        1.29765       -1.34788
H          1.54635        1.41769       -1.61962
H          1.58200       -0.78844       -2.56316
H         -1.50494        0.45184       -4.41802
H         -1.67341       -0.31202       -0.95560
H         -3.40677       -0.23397       -1.15160
H         -0.52031       -2.52778       -1.27965
H         -1.32992       -3.02747       -2.79229
H         -2.42779       -4.85951       -1.71255
H         -0.81791       -4.89606       -0.96905
H         -1.56343       -3.93882        1.03242
H         -3.92202       -2.39544        0.34070
H         -2.28941       -1.84917        0.76142
H         -3.91520       -4.54731        1.63104
H         -4.25464       -4.94567       -0.05502
H         -3.71357       -6.86608        1.19161
H         -2.57415       -6.62845        0.05610

--Link1--
%chk=JID_6090.chk
%mem=8GB
%nprocshared=4
# B3LYP/6-311++G(d,p) empiricaldispersion=gd3bj scf=xqc pop=npa geom=check

CID_62063416_JID_6090_Energie_neutraal

0 1

--Link1--
%chk=JID_6090.chk
%mem=8GB
%nprocshared=4
# B3LYP/6-311++G(d,p) empiricaldispersion=gd3bj scf=xqc pop=npa geom=check

CID_62063416_JID_6090_Energie_kation

1 2

--Link1--
%chk=JID_6090.chk
%mem=8GB
%nprocshared=4
# B3LYP/6-311++G(d,p) empiricaldispersion=gd3bj scf=xqc pop=npa geom=check

CID_62063416_JID_6090_Energie_anion

-1 2
