%chk=JID_1156.chk
%mem=8GB
%nprocshared=4
# opt freq B3LYP/6-31G(d) empiricaldispersion=gd3bj scf=xqc

CID_21437708_JID_1156_neutraal

0 1
C          0.95477        0.06995       -0.05533
C          0.50470        1.00546       -1.18828
C          1.38326        0.73421       -2.41180
C         -1.02266        0.86834       -1.48039
C         -1.84282        1.23369       -0.22820
C         -1.51835        1.75994       -2.65208
C         -1.48503        1.13788       -4.07157
C         -2.33227       -0.13728       -4.15767
C         -1.99991        2.14472       -5.11832
C         -1.01160        3.25539       -5.37240
O         -0.44748        3.42133       -6.44922
H          0.68619       -0.96971       -0.27062
H          0.50718        0.35161        0.90201
H          2.04080        0.11594        0.08256
H          0.70706        2.03479       -0.86329
H          1.14222       -0.23139       -2.86838
H          1.26881        1.52183       -3.16181
H          2.44442        0.71948       -2.13895
H         -1.23800       -0.18265       -1.69632
H         -1.61718        2.25118        0.10868
H         -2.91751        1.17423       -0.43348
H         -1.64849        0.54492        0.59868
H         -2.55964        2.05539       -2.46336
H         -0.94474        2.69431       -2.63933
H         -0.45870        0.87121       -4.33848
H         -3.35562        0.04139       -3.81150
H         -2.38353       -0.50274       -5.18932
H         -1.90324       -0.94713       -3.56128
H         -2.17255        1.64248       -6.07790
H         -2.94993        2.59436       -4.80936
H         -0.82764        3.94399       -4.53121

--Link1--
%chk=JID_1156.chk
%mem=8GB
%nprocshared=4
# B3LYP/6-311++G(d,p) empiricaldispersion=gd3bj scf=xqc pop=npa geom=check

CID_21437708_JID_1156_Energie_neutraal

0 1

--Link1--
%chk=JID_1156.chk
%mem=8GB
%nprocshared=4
# B3LYP/6-311++G(d,p) empiricaldispersion=gd3bj scf=xqc pop=npa geom=check

CID_21437708_JID_1156_Energie_kation

1 2

--Link1--
%chk=JID_1156.chk
%mem=8GB
%nprocshared=4
# B3LYP/6-311++G(d,p) empiricaldispersion=gd3bj scf=xqc pop=npa geom=check

CID_21437708_JID_1156_Energie_anion

-1 2
