%chk=JID_7062.chk
%mem=8GB
%nprocshared=4
# opt freq B3LYP/6-31G(d) empiricaldispersion=gd3bj scf=xqc

CID_741328_JID_7062_neutraal

0 1
C          0.99079       -0.07648        0.06376
C          1.11638        1.43651        0.08673
O          1.44431        1.90386       -1.22787
C          2.75207        2.29235       -1.30861
C          3.14811        3.53893       -0.83042
C          4.48044        3.93498       -0.95804
C          5.41847        3.08969       -1.57275
C          4.99359        1.84615       -2.06787
C          3.66065        1.45385       -1.94593
C          6.85233        3.53156       -1.74785
S          7.06065        4.60536       -3.20225
C          6.87329        3.43008       -4.45497
N          7.52963        2.29808       -4.57840
N          7.02463        1.64687       -5.68741
C          6.07617        2.40448       -6.19707
N          5.93906        3.53655       -5.45118
N          4.97161        4.56859       -5.66295
H          0.26602       -0.39241       -0.69376
H          0.66996       -0.45406        1.03877
H          1.94686       -0.54310       -0.19393
H          0.15037        1.87806        0.35467
H          1.84046        1.74779        0.85089
H          2.42328        4.20180       -0.36716
H          4.78183        4.91102       -0.58325
H          5.69760        1.17974       -2.56547
H          3.33474        0.49748       -2.34478
H          7.16573        4.09429       -0.86097
H          7.52296        2.66687       -1.81078
H          5.47388        2.18837       -7.06637
H          5.39731        5.48320       -5.51056
H          4.23558        4.50163       -4.95844

--Link1--
%chk=JID_7062.chk
%mem=8GB
%nprocshared=4
# B3LYP/6-311++G(d,p) empiricaldispersion=gd3bj scf=xqc pop=npa geom=check

CID_741328_JID_7062_Energie_neutraal

0 1

--Link1--
%chk=JID_7062.chk
%mem=8GB
%nprocshared=4
# B3LYP/6-311++G(d,p) empiricaldispersion=gd3bj scf=xqc pop=npa geom=check

CID_741328_JID_7062_Energie_kation

1 2

--Link1--
%chk=JID_7062.chk
%mem=8GB
%nprocshared=4
# B3LYP/6-311++G(d,p) empiricaldispersion=gd3bj scf=xqc pop=npa geom=check

CID_741328_JID_7062_Energie_anion

-1 2
