%chk=JID_5318.chk
%mem=8GB
%nprocshared=4
# opt freq B3LYP/6-31G(d) empiricaldispersion=gd3bj scf=xqc

CID_104085843_JID_5318_neutraal

0 1
C          2.49200        0.00400       -0.01400
C          0.99578        0.14572       -0.02086
C          0.14474       -0.80538        0.56774
C         -1.24460       -0.62494        0.54798
C         -1.79686        0.50083       -0.06460
C         -0.96758        1.45792       -0.65293
C          0.41889        1.26458       -0.64845
S         -1.68624        2.86991       -1.46765
C         -1.63302        4.15938       -0.13922
C         -2.36758        3.72957        1.12523
C         -0.20067        4.61846        0.16105
O          0.44406        5.11432       -1.00990
C          0.66426       -2.04317        1.20631
N          0.29351       -2.40633        2.39214
N          1.52583       -2.85469        0.53548
H          2.85080       -0.32253        0.96732
H          2.80932       -0.70985       -0.78004
H          2.97986        0.96260       -0.22253
H         -1.90238       -1.37279        0.98578
H         -2.87811        0.61802       -0.08594
H          1.06521        1.99480       -1.13302
H         -2.17123        5.00988       -0.57454
H         -1.83884        2.93409        1.65986
H         -2.45395        4.57617        1.81573
H         -3.38355        3.38672        0.90223
H         -0.21441        5.43496        0.89102
H          0.41326        3.81955        0.58687
H          0.22775        4.49818       -1.73456
H         -0.33219       -1.70796        2.80672
H          1.40756       -2.90329       -0.46932
H          1.59615       -3.76693        0.97565

--Link1--
%chk=JID_5318.chk
%mem=8GB
%nprocshared=4
# B3LYP/6-311++G(d,p) empiricaldispersion=gd3bj scf=xqc pop=npa geom=check

CID_104085843_JID_5318_Energie_neutraal

0 1

--Link1--
%chk=JID_5318.chk
%mem=8GB
%nprocshared=4
# B3LYP/6-311++G(d,p) empiricaldispersion=gd3bj scf=xqc pop=npa geom=check

CID_104085843_JID_5318_Energie_kation

1 2

--Link1--
%chk=JID_5318.chk
%mem=8GB
%nprocshared=4
# B3LYP/6-311++G(d,p) empiricaldispersion=gd3bj scf=xqc pop=npa geom=check

CID_104085843_JID_5318_Energie_anion

-1 2
