%chk=JID_8043.chk
%mem=8GB
%nprocshared=4
# opt freq B3LYP/6-31G(d) empiricaldispersion=gd3bj scf=xqc

CID_105942388_JID_8043_neutraal

0 1
C          1.07438       -0.04304        0.05113
C          0.44495       -1.42165        0.19649
C          1.01920       -2.22769        1.36483
N          0.63329       -1.65459        2.65474
C          1.23667       -2.37843        3.78793
C          2.68742       -2.09512        3.97136
N          3.27095       -1.09004        4.58945
N          4.62688       -1.26901        4.40827
C          4.77088       -2.35916        3.68787
O          3.57995       -2.95056        3.38115
N          5.86732       -2.97334        3.21471
C          7.16041       -2.64299        3.78073
C          7.44153       -3.44527        5.05302
C          7.57524       -4.95904        4.84453
C          8.68901       -5.40142        3.88606
C         10.08001       -4.88982        4.25377
O         10.38396       -5.27035        5.59234
C         11.61667       -4.71626        6.03157
H          0.83941        0.60058        0.90389
H          0.69360        0.44910       -0.84965
H          2.16296       -0.11555       -0.03833
H         -0.64191       -1.32044        0.30238
H          0.61979       -1.98190       -0.73001
H          0.63457       -3.25222        1.29791
H          2.10842       -2.27400        1.25621
H          0.92628       -0.67806        2.70967
H          0.71305       -2.06245        4.69769
H          1.06101       -3.45650        3.69472
H          5.75012       -3.91838        2.87129
H          7.93191       -2.83629        3.02820
H          7.22572       -1.57041        4.00363
H          8.35751       -3.06044        5.51611
H          6.63954       -3.26982        5.78120
H          7.74303       -5.42452        5.82391
H          6.62306       -5.36511        4.48224
H          8.70828       -6.49869        3.89299
H          8.44908       -5.09956        2.86061
H         10.82134       -5.32924        3.57648
H         10.12708       -3.79995        4.15180
H         12.43579       -5.02990        5.37757
H         11.55277       -3.62413        6.05956
H         11.81608       -5.07917        7.04332

--Link1--
%chk=JID_8043.chk
%mem=8GB
%nprocshared=4
# B3LYP/6-311++G(d,p) empiricaldispersion=gd3bj scf=xqc pop=npa geom=check

CID_105942388_JID_8043_Energie_neutraal

0 1

--Link1--
%chk=JID_8043.chk
%mem=8GB
%nprocshared=4
# B3LYP/6-311++G(d,p) empiricaldispersion=gd3bj scf=xqc pop=npa geom=check

CID_105942388_JID_8043_Energie_kation

1 2

--Link1--
%chk=JID_8043.chk
%mem=8GB
%nprocshared=4
# B3LYP/6-311++G(d,p) empiricaldispersion=gd3bj scf=xqc pop=npa geom=check

CID_105942388_JID_8043_Energie_anion

-1 2
