%chk=JID_2637.chk
%mem=8GB
%nprocshared=4
# opt freq B3LYP/6-31G(d) empiricaldispersion=gd3bj scf=xqc

CID_153946205_JID_2637_neutraal

0 1
C         -0.02900        0.88300        0.00000
C         -0.15219       -0.47445        0.63191
C          1.20928        0.06411        0.26979
C          1.98099       -0.55609       -0.85154
O          3.17592        0.17789       -1.11003
C          2.97351        1.39678       -1.82580
C          2.81673        1.17410       -3.30875
C          4.07922        1.12129       -4.15408
C          3.21483       -0.09414       -3.99637
C          2.15896       -0.42502       -4.99741
N          1.00626        0.40247       -4.59482
C          1.52862        1.61855       -3.94082
H         -0.20467        1.75213        0.62421
H         -0.37287        0.99633       -1.02156
H         -0.41353       -0.52322        1.68334
H         -0.57168       -1.27661        0.03535
H          1.85514        0.35571        1.09079
H          2.29110       -1.56060       -0.54450
H          1.38223       -0.66868       -1.76076
H          2.14009        1.96475       -1.40045
H          3.86603        2.00964       -1.65451
H          4.08673        1.63511       -5.10879
H          5.04167        1.11431       -3.65371
H          3.58239       -0.93806       -3.43181
H          1.89239       -1.48604       -4.97526
H          2.47526       -0.16621       -6.01333
H          0.49225       -0.12402       -3.88972
H          0.79677        1.99605       -3.22026
H          1.70453        2.40095       -4.68729

--Link1--
%chk=JID_2637.chk
%mem=8GB
%nprocshared=4
# B3LYP/6-311++G(d,p) empiricaldispersion=gd3bj scf=xqc pop=npa geom=check

CID_153946205_JID_2637_Energie_neutraal

0 1

--Link1--
%chk=JID_2637.chk
%mem=8GB
%nprocshared=4
# B3LYP/6-311++G(d,p) empiricaldispersion=gd3bj scf=xqc pop=npa geom=check

CID_153946205_JID_2637_Energie_kation

1 2

--Link1--
%chk=JID_2637.chk
%mem=8GB
%nprocshared=4
# B3LYP/6-311++G(d,p) empiricaldispersion=gd3bj scf=xqc pop=npa geom=check

CID_153946205_JID_2637_Energie_anion

-1 2
