%chk=JID_1149.chk
%mem=8GB
%nprocshared=4
# opt freq B3LYP/6-31G(d) empiricaldispersion=gd3bj scf=xqc

CID_116146162_JID_1149_neutraal

0 1
C          1.05344       -0.01803        0.08258
C          1.00814        1.40366        0.65156
C          2.06409        2.23547       -0.04173
C          1.90418        3.20528       -0.95419
N         -0.35783        1.88542        0.52010
C         -0.84324        2.77026        1.57184
C          0.06453        3.91400        2.03173
C         -0.88187        4.82583        2.80655
C         -2.26082        4.66020        2.15844
C         -2.11783        3.52921        1.13792
O         -1.96973        4.08476       -0.17587
H          0.80012       -0.03811       -0.98433
H          0.34847       -0.67272        0.60823
H          2.05207       -0.45566        0.19682
H          1.27379        1.33088        1.71389
H          3.08595        1.98714        0.24550
H          2.76819        3.71278       -1.37334
H          0.93137        3.51251       -1.32030
H         -0.55118        2.26795       -0.40387
H         -1.09087        2.15659        2.44883
H          0.48612        4.46735        1.18635
H          0.89333        3.57141        2.65899
H         -0.54401        5.86671        2.79020
H         -0.92948        4.51237        3.85630
H         -2.59028        5.59562        1.69391
H         -2.98913        4.39045        2.93147
H         -2.99879        2.88015        1.12015
H         -1.22007        4.70263       -0.15720

--Link1--
%chk=JID_1149.chk
%mem=8GB
%nprocshared=4
# B3LYP/6-311++G(d,p) empiricaldispersion=gd3bj scf=xqc pop=npa geom=check

CID_116146162_JID_1149_Energie_neutraal

0 1

--Link1--
%chk=JID_1149.chk
%mem=8GB
%nprocshared=4
# B3LYP/6-311++G(d,p) empiricaldispersion=gd3bj scf=xqc pop=npa geom=check

CID_116146162_JID_1149_Energie_kation

1 2

--Link1--
%chk=JID_1149.chk
%mem=8GB
%nprocshared=4
# B3LYP/6-311++G(d,p) empiricaldispersion=gd3bj scf=xqc pop=npa geom=check

CID_116146162_JID_1149_Energie_anion

-1 2
