%chk=JID_7831.chk
%mem=8GB
%nprocshared=4
# opt freq B3LYP/6-31G(d) empiricaldispersion=gd3bj scf=xqc

CID_128942163_JID_7831_neutraal

0 1
C         -2.11400        1.02000        0.34200
C         -2.35322       -0.25726       -0.49557
C         -1.26596       -1.32949       -0.26659
C          0.04856       -0.66244       -0.21592
C          0.31921        0.67062       -0.06451
C         -0.75391        1.69106        0.03606
C          1.74082        0.74708       -0.06563
N          2.26020       -0.48954       -0.20954
O          1.19221       -1.36816       -0.29509
C          2.54164        1.97633        0.03112
O          2.01452        3.08908       -0.05460
N          3.90379        1.95194        0.22823
C          4.81066        0.84024        0.43677
C          5.35121        0.43853       -0.92258
C          6.36549        1.40273       -1.59946
C          7.11485        0.14944       -2.09498
C          6.50240       -0.60265       -0.89610
H         -2.92152        1.73901        0.16338
H         -2.15349        0.75317        1.40624
H         -3.33681       -0.67962       -0.26097
H         -2.37016        0.01997       -1.55781
H         -1.44910       -1.84109        0.68499
H         -1.30194       -2.07782       -1.06468
H         -0.82299        2.23093       -0.91583
H         -0.52667        2.42273        0.81868
H          4.30206        2.88192        0.23123
H          5.61147        1.19998        1.09200
H          4.31391        0.01506        0.94971
H          4.55620        0.13221       -1.61777
H          5.95676        2.04828       -2.38115
H          6.94933        2.01437       -0.90157
H          8.20519        0.21977       -2.10649
H          6.76861       -0.21572       -3.06865
H          7.12651       -0.57078        0.00486
H          6.20936       -1.63822       -1.08755

--Link1--
%chk=JID_7831.chk
%mem=8GB
%nprocshared=4
# B3LYP/6-311++G(d,p) empiricaldispersion=gd3bj scf=xqc pop=npa geom=check

CID_128942163_JID_7831_Energie_neutraal

0 1

--Link1--
%chk=JID_7831.chk
%mem=8GB
%nprocshared=4
# B3LYP/6-311++G(d,p) empiricaldispersion=gd3bj scf=xqc pop=npa geom=check

CID_128942163_JID_7831_Energie_kation

1 2

--Link1--
%chk=JID_7831.chk
%mem=8GB
%nprocshared=4
# B3LYP/6-311++G(d,p) empiricaldispersion=gd3bj scf=xqc pop=npa geom=check

CID_128942163_JID_7831_Energie_anion

-1 2
