%chk=JID_5512.chk
%mem=8GB
%nprocshared=4
# opt freq B3LYP/6-31G(d) empiricaldispersion=gd3bj scf=xqc

CID_87530098_JID_5512_neutraal

0 1
C          1.08561        0.04801       -0.01911
C          0.15414        0.09783       -1.21543
N          0.71630       -0.63315       -2.36009
C          0.54170       -1.98888       -2.58248
C          1.18342       -2.28442       -3.74569
N          1.72322       -1.09997       -4.22107
C          1.45763       -0.09503       -3.35589
C          1.88455        1.33279       -3.47147
C          2.46396       -0.97014       -5.48391
C          1.60006       -0.27110       -6.50109
C          0.42255       -0.87238       -6.97410
C         -0.37445       -0.22720       -7.92090
C         -0.00522        1.02444       -8.40663
C          1.16350        1.63034       -7.95177
C          1.96526        0.98585       -7.00777
H          1.25313       -0.98538        0.30081
H          0.66010        0.60409        0.82142
H          2.06035        0.48150       -0.26332
H         -0.81279       -0.35093       -0.96081
H         -0.04099        1.13286       -1.51328
H         -0.02532       -2.57034       -1.87561
H          1.31408       -3.19088       -4.31186
H          2.83082        1.37028       -4.00964
H          1.09355        1.86042       -4.00514
H          2.02084        1.73159       -2.46624
H          3.39479       -0.42715       -5.28968
H          2.74303       -1.96394       -5.85287
H          0.11649       -1.85368       -6.61922
H         -1.28129       -0.70287       -8.28864
H         -0.62396        1.52389       -9.14932
H          1.45353        2.60319       -8.34376
H          2.88069        1.47764       -6.68434

--Link1--
%chk=JID_5512.chk
%mem=8GB
%nprocshared=4
# B3LYP/6-311++G(d,p) empiricaldispersion=gd3bj scf=xqc pop=npa geom=check

CID_87530098_JID_5512_Energie_neutraal

0 1

--Link1--
%chk=JID_5512.chk
%mem=8GB
%nprocshared=4
# B3LYP/6-311++G(d,p) empiricaldispersion=gd3bj scf=xqc pop=npa geom=check

CID_87530098_JID_5512_Energie_kation

1 2

--Link1--
%chk=JID_5512.chk
%mem=8GB
%nprocshared=4
# B3LYP/6-311++G(d,p) empiricaldispersion=gd3bj scf=xqc pop=npa geom=check

CID_87530098_JID_5512_Energie_anion

-1 2
