%chk=JID_4965.chk
%mem=8GB
%nprocshared=4
# opt freq B3LYP/6-31G(d) empiricaldispersion=gd3bj scf=xqc

CID_81941376_JID_4965_neutraal

0 1
C          1.04077        0.07808        0.04734
C          1.11680        1.49247       -0.51195
C          1.40023        1.52214       -2.02501
C          1.61422        2.96078       -2.52043
C          0.24412        3.39035       -2.98747
O         -0.07249        4.52593       -3.29901
N         -0.54854        2.25713       -3.07356
C          0.21695        1.05181       -2.86780
C         -1.88936        2.25184       -3.65032
C         -1.92236        2.37260       -5.18620
C         -1.47294        1.06742       -5.86830
O         -1.47646       -0.04013       -5.34218
N         -1.14724        1.20505       -7.19246
N         -3.29436        2.67676       -5.66910
H          0.19451       -0.47730       -0.36601
H          0.91554        0.11179        1.13447
H          1.95797       -0.47883       -0.16902
H          0.18558        2.02298       -0.27981
H          1.92137        2.02158        0.01364
H          2.28941        0.91256       -2.22390
H          2.28963        2.98004       -3.38216
H          1.98590        3.63173       -1.74176
H          0.56486        0.69321       -3.84177
H         -0.39870        0.28561       -2.39193
H         -2.41374        1.35728       -3.29501
H         -2.40521        3.12190       -3.22385
H         -1.25615        3.18025       -5.51038
H         -0.97629        2.11133       -7.60791
H         -0.80911        0.38256       -7.67534
H         -3.29559        2.65326       -6.68862
H         -3.91461        1.91859       -5.37860

--Link1--
%chk=JID_4965.chk
%mem=8GB
%nprocshared=4
# B3LYP/6-311++G(d,p) empiricaldispersion=gd3bj scf=xqc pop=npa geom=check

CID_81941376_JID_4965_Energie_neutraal

0 1

--Link1--
%chk=JID_4965.chk
%mem=8GB
%nprocshared=4
# B3LYP/6-311++G(d,p) empiricaldispersion=gd3bj scf=xqc pop=npa geom=check

CID_81941376_JID_4965_Energie_kation

1 2

--Link1--
%chk=JID_4965.chk
%mem=8GB
%nprocshared=4
# B3LYP/6-311++G(d,p) empiricaldispersion=gd3bj scf=xqc pop=npa geom=check

CID_81941376_JID_4965_Energie_anion

-1 2
