%chk=JID_6790.chk
%mem=8GB
%nprocshared=4
# opt freq B3LYP/6-31G(d) empiricaldispersion=gd3bj scf=xqc

CID_69903501_JID_6790_neutraal

0 1
C          1.00310       -0.06142       -0.07885
C          0.38566        0.49962       -1.35002
C          0.63457       -0.36658       -2.58701
C          0.12782       -1.81282       -2.50258
C         -1.37324       -1.98452       -2.16533
C         -2.25878       -1.27662       -3.20174
C         -1.75592       -3.48353       -2.02965
O         -0.91050       -4.06770       -1.03017
C         -1.21977       -5.45086       -0.85564
C         -1.00557       -6.16563       -2.18869
C         -1.91310       -5.50231       -3.22277
O         -1.56775       -4.11912       -3.29888
C         -3.38197       -5.60920       -2.81691
C         -3.54438       -4.90683       -1.47032
C         -2.67312       -5.56112       -0.39997
O         -3.12837       -3.54891       -1.61930
H          0.53156       -1.00351        0.21577
H          0.87248        0.64640        0.74601
H          2.07584       -0.23661       -0.20775
H         -0.68862        0.64986       -1.19845
H          0.81166        1.49324       -1.53513
H          0.18893        0.12764       -3.45823
H          1.71421       -0.39635       -2.78317
H          0.34122       -2.29784       -3.46391
H          0.73470       -2.34443       -1.76010
H         -1.56529       -1.51564       -1.19169
H         -2.06052       -1.64426       -4.21397
H         -3.32169       -1.42878       -2.98865
H         -2.08829       -0.19578       -3.19672
H         -0.54880       -5.85808       -0.09281
H         -1.21965       -7.23632       -2.10289
H          0.03925       -6.04104       -2.49760
H         -1.75702       -5.94879       -4.20976
H         -3.99802       -5.09533       -3.56460
H         -3.70187       -6.65506       -2.75904
H         -4.59450       -4.91113       -1.16188
H         -2.96011       -6.60569       -0.23870
H         -2.79447       -5.01509        0.54328

--Link1--
%chk=JID_6790.chk
%mem=8GB
%nprocshared=4
# B3LYP/6-311++G(d,p) empiricaldispersion=gd3bj scf=xqc pop=npa geom=check

CID_69903501_JID_6790_Energie_neutraal

0 1

--Link1--
%chk=JID_6790.chk
%mem=8GB
%nprocshared=4
# B3LYP/6-311++G(d,p) empiricaldispersion=gd3bj scf=xqc pop=npa geom=check

CID_69903501_JID_6790_Energie_kation

1 2

--Link1--
%chk=JID_6790.chk
%mem=8GB
%nprocshared=4
# B3LYP/6-311++G(d,p) empiricaldispersion=gd3bj scf=xqc pop=npa geom=check

CID_69903501_JID_6790_Energie_anion

-1 2
