%chk=JID_5006.chk
%mem=8GB
%nprocshared=4
# opt freq B3LYP/6-31G(d) empiricaldispersion=gd3bj scf=xqc

CID_70661239_JID_5006_neutraal

0 1
C          0.90887        0.04117        0.00031
C          0.60756       -0.99826        0.99023
N          0.10591       -2.54434        0.69364
N         -0.11347       -3.41734        2.43934
N          0.36131       -2.11042        3.63423
N          0.74372       -0.77689        2.77504
C         -0.14923       -4.77244        2.98190
C         -0.76964       -5.87027        2.15735
O         -0.09332       -6.02739        0.92509
C          0.01565       -4.75151        0.27185
C          1.53156       -4.03465        0.85806
C          1.35750       -2.51686        1.98841
C         -0.80630       -1.82745        2.07377
C         -1.93396       -2.98650        1.08903
O         -1.36969       -4.12184        0.23840
H          0.51410        1.00575        0.33079
H          0.45925       -0.20349       -0.96593
H          1.98977        0.13624       -0.13376
H          0.88122       -5.02806        3.24984
H         -0.70460       -4.68076        3.92231
H         -0.68740       -6.82047        2.69635
H         -1.84003       -5.71193        1.98722
H          0.22836       -4.98899       -0.77742
H          2.08882       -3.67521       -0.02093
H          2.14219       -4.78272        1.37672
H          1.88942       -2.95911        2.89474
H          2.22251       -1.86194        1.65895
H         -1.41209       -1.83821        3.04001
H         -1.16966       -0.80722        1.73506
H         -2.62970       -3.43299        1.81077
H         -2.50845       -2.34181        0.41189

--Link1--
%chk=JID_5006.chk
%mem=8GB
%nprocshared=4
# B3LYP/6-311++G(d,p) empiricaldispersion=gd3bj scf=xqc pop=npa geom=check

CID_70661239_JID_5006_Energie_neutraal

0 1

--Link1--
%chk=JID_5006.chk
%mem=8GB
%nprocshared=4
# B3LYP/6-311++G(d,p) empiricaldispersion=gd3bj scf=xqc pop=npa geom=check

CID_70661239_JID_5006_Energie_kation

1 2

--Link1--
%chk=JID_5006.chk
%mem=8GB
%nprocshared=4
# B3LYP/6-311++G(d,p) empiricaldispersion=gd3bj scf=xqc pop=npa geom=check

CID_70661239_JID_5006_Energie_anion

-1 2
