%chk=JID_7272.chk
%mem=8GB
%nprocshared=4
# opt freq B3LYP/6-31G(d) empiricaldispersion=gd3bj scf=xqc

CID_84140407_JID_7272_neutraal

0 1
C         -2.53900       -0.00300       -0.12500
C         -1.07218       -0.08038        0.33657
C         -0.39741        1.27473        0.01824
C          1.11161        1.22880        0.26616
N          1.75728        0.16648       -0.50813
C          1.18308       -1.13694       -0.16959
C         -0.31981       -1.17724       -0.44331
O         -0.93179       -0.23810        1.77088
C         -1.71496       -1.17726        2.37958
C         -1.28602       -2.50015        2.47763
C         -2.08371       -3.39626        3.16996
C         -3.27676       -2.98486        3.77449
C         -3.96951       -4.14088        4.42518
C         -2.82193       -5.15614        4.52956
C         -1.86637       -4.86399        3.36368
C         -3.69344       -1.66646        3.70818
C         -2.89024       -0.75385        3.01995
H         -3.08802        0.76202        0.43482
H         -2.60928        0.24042       -1.19097
H         -3.05945       -0.95500        0.02575
H         -0.58009        1.55504       -1.02755
H         -0.82727        2.06482        0.64693
H          1.32817        1.09814        1.33320
H          1.55350        2.18920       -0.02203
H          1.62449        0.34669       -1.50301
H          1.39858       -1.37954        0.87748
H          1.68032       -1.90440       -0.77315
H         -0.70201       -2.17217       -0.19462
H         -0.48814       -1.04612       -1.52102
H         -0.34759       -2.81940        2.04094
H         -4.77042       -4.51288        3.77815
H         -4.36925       -3.88915        5.41146
H         -2.28899       -4.99934        5.47790
H         -3.17812       -6.19103        4.52865
H         -0.83216       -5.10425        3.62535
H         -2.16293       -5.41016        2.46233
H         -4.61187       -1.34254        4.18648
H         -3.17828        0.29290        2.97818

--Link1--
%chk=JID_7272.chk
%mem=8GB
%nprocshared=4
# B3LYP/6-311++G(d,p) empiricaldispersion=gd3bj scf=xqc pop=npa geom=check

CID_84140407_JID_7272_Energie_neutraal

0 1

--Link1--
%chk=JID_7272.chk
%mem=8GB
%nprocshared=4
# B3LYP/6-311++G(d,p) empiricaldispersion=gd3bj scf=xqc pop=npa geom=check

CID_84140407_JID_7272_Energie_kation

1 2

--Link1--
%chk=JID_7272.chk
%mem=8GB
%nprocshared=4
# B3LYP/6-311++G(d,p) empiricaldispersion=gd3bj scf=xqc pop=npa geom=check

CID_84140407_JID_7272_Energie_anion

-1 2
