%chk=JID_8517.chk
%mem=8GB
%nprocshared=4
# opt freq B3LYP/6-31G(d) empiricaldispersion=gd3bj scf=xqc

CID_62495240_JID_8517_neutraal

0 1
C          0.93623        0.02876        0.07145
C         -0.13077       -0.98050       -0.31694
C          0.48447       -2.17518       -1.06371
O          1.19073       -2.09169       -2.05917
N          0.08506       -3.32534       -0.43679
C         -0.62503       -3.03540        0.68753
O         -1.14123       -3.82150        1.46377
N         -0.68065       -1.66742        0.82927
C          0.36759       -4.66935       -0.90298
C         -0.77438       -5.26396       -1.73976
C         -0.95077       -4.58391       -3.08144
C         -1.98468       -3.63789       -3.22083
C         -2.18432       -2.96501       -4.42487
C         -1.37003       -3.24760       -5.51402
C         -0.35199       -4.19394       -5.39198
C         -0.09439       -4.83348       -4.17079
N          0.85937       -5.86522       -4.14840
C         -1.24475       -0.35261       -1.14732
H          0.52384        0.80947        0.72007
H          1.36744        0.51078       -0.81286
H          1.75836       -0.45061        0.61571
H         -1.22724       -1.24854        1.57049
H          1.30455       -4.65253       -1.46945
H          0.51862       -5.30353       -0.02158
H         -0.59133       -6.33293       -1.90395
H         -1.71409       -5.21463       -1.17427
H         -2.64636       -3.42304       -2.38453
H         -2.98280       -2.23414       -4.51674
H         -1.53147       -2.74487       -6.46338
H          0.25249       -4.42540       -6.26526
H          1.25450       -6.05482       -3.23667
H          1.58642       -5.74462       -4.84770
H         -1.75153        0.44026       -0.58561
H         -0.85393        0.07909       -2.07483
H         -2.00587       -1.09079       -1.42370

--Link1--
%chk=JID_8517.chk
%mem=8GB
%nprocshared=4
# B3LYP/6-311++G(d,p) empiricaldispersion=gd3bj scf=xqc pop=npa geom=check

CID_62495240_JID_8517_Energie_neutraal

0 1

--Link1--
%chk=JID_8517.chk
%mem=8GB
%nprocshared=4
# B3LYP/6-311++G(d,p) empiricaldispersion=gd3bj scf=xqc pop=npa geom=check

CID_62495240_JID_8517_Energie_kation

1 2

--Link1--
%chk=JID_8517.chk
%mem=8GB
%nprocshared=4
# B3LYP/6-311++G(d,p) empiricaldispersion=gd3bj scf=xqc pop=npa geom=check

CID_62495240_JID_8517_Energie_anion

-1 2
