%chk=JID_2759.chk
%mem=8GB
%nprocshared=4
# opt freq B3LYP/6-31G(d) empiricaldispersion=gd3bj scf=xqc

CID_54504171_JID_2759_neutraal

0 1
C          1.02069       -0.00245       -0.09780
C          0.78571       -1.32084        0.61914
N          1.09423       -1.21196        2.03365
C          0.28100       -0.81271        3.05450
O          0.76907       -0.46907        4.12873
C         -1.19445       -0.80034        2.83719
C         -1.85087        0.34514        3.09826
C         -3.34881        0.44481        3.02555
C         -4.02500       -0.72139        2.25381
C         -3.22779       -1.99819        2.23988
C         -1.91599       -2.01608        2.51792
N         -3.74642        1.72506        2.43917
H          0.37417        0.78464        0.30406
H          0.81156       -0.10652       -1.16678
H          2.05864        0.32657        0.01903
H         -0.24559       -1.64473        0.46831
H          1.44635       -2.09063        0.20795
H          2.07293       -1.15752        2.28915
H         -1.29536        1.21488        3.44034
H         -3.72345        0.42900        4.05729
H         -5.00846       -0.91442        2.70073
H         -4.21173       -0.44282        1.20799
H         -3.74614       -2.91812        1.98618
H         -1.35931       -2.94934        2.51088
H         -3.36132        2.48721        2.99406
H         -3.34490        1.80807        1.50675

--Link1--
%chk=JID_2759.chk
%mem=8GB
%nprocshared=4
# B3LYP/6-311++G(d,p) empiricaldispersion=gd3bj scf=xqc pop=npa geom=check

CID_54504171_JID_2759_Energie_neutraal

0 1

--Link1--
%chk=JID_2759.chk
%mem=8GB
%nprocshared=4
# B3LYP/6-311++G(d,p) empiricaldispersion=gd3bj scf=xqc pop=npa geom=check

CID_54504171_JID_2759_Energie_kation

1 2

--Link1--
%chk=JID_2759.chk
%mem=8GB
%nprocshared=4
# B3LYP/6-311++G(d,p) empiricaldispersion=gd3bj scf=xqc pop=npa geom=check

CID_54504171_JID_2759_Energie_anion

-1 2
