%chk=JID_7669.chk
%mem=8GB
%nprocshared=4
# opt freq B3LYP/6-31G(d) empiricaldispersion=gd3bj scf=xqc

CID_91163829_JID_7669_neutraal

0 1
C          1.01450       -0.07982        0.05847
C          1.75165       -1.34214       -0.21500
C          2.51155       -1.55165       -1.30139
S          3.15886       -3.15468       -1.43612
C          2.48781       -3.65601        0.17240
C          1.64684       -2.50083        0.65029
C          0.86729       -2.70587        1.72223
N          0.76049       -3.94366        2.32192
C          1.13699       -4.94506        1.58544
N          1.69258       -4.88737        0.30956
C          0.71208       -5.18868       -0.74997
C          1.31330       -5.74828       -2.01615
C          0.89180       -5.25137       -3.26130
C          1.43629       -5.74609       -4.44572
C          2.39500       -6.75494       -4.40033
C          2.80475       -7.27340       -3.17237
C          2.26310       -6.77774       -1.98495
H          1.32022        0.34638        1.01975
H         -0.06575       -0.25763        0.08424
H          1.20543        0.67542       -0.71174
H          2.69052       -0.81438       -2.07450
H          3.36391       -3.74366        0.83008
H          0.22953       -1.92769        2.13005
H          1.00126       -5.98124        1.94116
H          0.00274       -5.94665       -0.38871
H          0.11174       -4.29564       -0.96722
H          0.15198       -4.45531       -3.31434
H          1.11843       -5.33773       -5.40127
H          2.82595       -7.13496       -5.32251
H          3.55400       -8.05969       -3.13905
H          2.59849       -7.18329       -1.03307

--Link1--
%chk=JID_7669.chk
%mem=8GB
%nprocshared=4
# B3LYP/6-311++G(d,p) empiricaldispersion=gd3bj scf=xqc pop=npa geom=check

CID_91163829_JID_7669_Energie_neutraal

0 1

--Link1--
%chk=JID_7669.chk
%mem=8GB
%nprocshared=4
# B3LYP/6-311++G(d,p) empiricaldispersion=gd3bj scf=xqc pop=npa geom=check

CID_91163829_JID_7669_Energie_kation

1 2

--Link1--
%chk=JID_7669.chk
%mem=8GB
%nprocshared=4
# B3LYP/6-311++G(d,p) empiricaldispersion=gd3bj scf=xqc pop=npa geom=check

CID_91163829_JID_7669_Energie_anion

-1 2
