%chk=JID_4839.chk
%mem=8GB
%nprocshared=4
# opt freq B3LYP/6-31G(d) empiricaldispersion=gd3bj scf=xqc

CID_148152229_JID_4839_neutraal

0 1
C          1.08993        0.04076       -0.01587
C          0.51369        0.54747       -1.33155
C          1.07460       -0.20286       -2.53989
N          0.59099       -1.57547       -2.50024
C          1.36408       -2.58745       -2.61099
N          0.89361       -3.86977       -2.52204
C          1.80450       -4.88876       -2.68425
O          1.54448       -6.08804       -2.65596
C          3.19941       -4.37307       -2.90856
S          3.08228       -2.57732       -2.88557
C         -0.50860       -4.16304       -2.27747
C         -0.80572       -4.10263       -0.79293
C         -1.55844       -3.12357       -0.26151
C         -0.25699       -5.21280        0.05859
H          0.82758       -1.00642        0.16128
H          0.69689        0.63028        0.81849
H          2.18114        0.12765       -0.00754
H         -0.57872        0.45679       -1.30553
H          0.74809        1.61335       -1.43380
H          0.69963        0.26858       -3.45532
H          2.16294       -0.09760       -2.55150
H          3.85353       -4.71992       -2.10501
H          3.56686       -4.71547       -3.87892
H         -1.12444       -3.44355       -2.83042
H         -0.76144       -5.15798       -2.66162
H         -1.78121       -3.08469        0.80032
H         -1.95492       -2.31838       -0.87483
H         -0.56243       -6.18591       -0.33859
H          0.83612       -5.17187        0.08782
H         -0.61555       -5.15104        1.09180

--Link1--
%chk=JID_4839.chk
%mem=8GB
%nprocshared=4
# B3LYP/6-311++G(d,p) empiricaldispersion=gd3bj scf=xqc pop=npa geom=check

CID_148152229_JID_4839_Energie_neutraal

0 1

--Link1--
%chk=JID_4839.chk
%mem=8GB
%nprocshared=4
# B3LYP/6-311++G(d,p) empiricaldispersion=gd3bj scf=xqc pop=npa geom=check

CID_148152229_JID_4839_Energie_kation

1 2

--Link1--
%chk=JID_4839.chk
%mem=8GB
%nprocshared=4
# B3LYP/6-311++G(d,p) empiricaldispersion=gd3bj scf=xqc pop=npa geom=check

CID_148152229_JID_4839_Energie_anion

-1 2
