%chk=JID_10039.chk
%mem=8GB
%nprocshared=4
# opt freq B3LYP/6-31G(d) empiricaldispersion=gd3bj scf=xqc

CID_81496053_JID_10039_neutraal

0 1
C          2.49200        0.00400       -0.01400
C          0.99459       -0.08070       -0.08697
C          0.36025       -1.32565       -0.02693
C         -1.03175       -1.41660       -0.09886
C         -1.81975       -0.26527       -0.24078
C         -1.18128        0.97869       -0.32955
C          0.21361        1.06836       -0.25796
C         -3.32817       -0.37521       -0.26422
C         -3.85740       -1.06556       -1.47551
N         -3.96662       -2.37038       -1.64450
N         -4.49004       -2.60644       -2.89404
C         -4.69987       -1.44352       -3.46581
N         -4.33783       -0.44890       -2.59832
C         -4.43247        0.96328       -2.89186
C         -5.32785        1.25801       -4.10477
C         -5.02504        0.27115       -5.24474
C         -5.28205       -1.17119       -4.80268
C         -5.13123        2.70512       -4.48335
O         -4.96820        3.62278       -3.69452
O         -5.20200        2.95122       -5.80095
H          2.87875       -0.67777        0.75065
H          2.92910       -0.25815       -0.98240
H          2.81811        1.01434        0.25412
H          0.94482       -2.23647        0.08238
H         -1.50308       -2.39738       -0.04331
H         -1.76064        1.89194       -0.44236
H          0.68635        2.04570       -0.32594
H         -3.64555       -0.92975        0.62856
H         -3.77730        0.61895       -0.15844
H         -3.40771        1.31840       -3.05575
H         -4.83230        1.46513       -2.00375
H         -6.38301        1.14561       -3.82113
H         -5.64225        0.48631       -6.12527
H         -3.97901        0.38316       -5.56010
H         -6.36244       -1.35369       -4.75747
H         -4.86675       -1.86362       -5.54296
H         -5.08672        3.92228       -5.88288

--Link1--
%chk=JID_10039.chk
%mem=8GB
%nprocshared=4
# B3LYP/6-311++G(d,p) empiricaldispersion=gd3bj scf=xqc pop=npa geom=check

CID_81496053_JID_10039_Energie_neutraal

0 1

--Link1--
%chk=JID_10039.chk
%mem=8GB
%nprocshared=4
# B3LYP/6-311++G(d,p) empiricaldispersion=gd3bj scf=xqc pop=npa geom=check

CID_81496053_JID_10039_Energie_kation

1 2

--Link1--
%chk=JID_10039.chk
%mem=8GB
%nprocshared=4
# B3LYP/6-311++G(d,p) empiricaldispersion=gd3bj scf=xqc pop=npa geom=check

CID_81496053_JID_10039_Energie_anion

-1 2
