%chk=JID_1029.chk
%mem=8GB
%nprocshared=4
# opt freq B3LYP/6-31G(d) empiricaldispersion=gd3bj scf=xqc

CID_23057694_JID_1029_neutraal

0 1
C          0.93051        0.01542        0.07024
C          0.90343        0.85934        1.33525
C          1.58969        2.21883        1.19989
S          0.65514        3.39948        0.17743
C          1.51552        3.33735       -1.31244
N          2.39692        2.45153       -1.70652
C          2.77820        2.86256       -2.96002
C          2.11652        4.01574       -3.32633
N          1.30842        4.30168       -2.25196
C          2.18009        4.86398       -4.52920
O          0.84476        5.21655       -4.85459
H          0.34010        0.46902       -0.73099
H          0.50820       -0.97446        0.27154
H          1.95560       -0.12297       -0.28755
H         -0.13237        0.98399        1.67354
H          1.41883        0.29808        2.12466
H          1.65416        2.66734        2.19769
H          2.62025        2.10670        0.84730
H          3.51419        2.30792       -3.52856
H          0.66839        5.07964       -2.17233
H          2.74600        5.77929       -4.33277
H          2.63213        4.34557       -5.38005
H          0.41190        4.39945       -5.15893

--Link1--
%chk=JID_1029.chk
%mem=8GB
%nprocshared=4
# B3LYP/6-311++G(d,p) empiricaldispersion=gd3bj scf=xqc pop=npa geom=check

CID_23057694_JID_1029_Energie_neutraal

0 1

--Link1--
%chk=JID_1029.chk
%mem=8GB
%nprocshared=4
# B3LYP/6-311++G(d,p) empiricaldispersion=gd3bj scf=xqc pop=npa geom=check

CID_23057694_JID_1029_Energie_kation

1 2

--Link1--
%chk=JID_1029.chk
%mem=8GB
%nprocshared=4
# B3LYP/6-311++G(d,p) empiricaldispersion=gd3bj scf=xqc pop=npa geom=check

CID_23057694_JID_1029_Energie_anion

-1 2
