%chk=JID_8988.chk
%mem=8GB
%nprocshared=4
# opt freq B3LYP/6-31G(d) empiricaldispersion=gd3bj scf=xqc

CID_81885095_JID_8988_neutraal

0 1
C          1.07987       -0.05309        0.02831
C          0.89209        1.29628        0.73987
C          1.63318        2.42000       -0.02322
N          0.98674        2.88118       -1.23679
C          1.16273        2.40825       -2.50511
C          0.37639        3.19250       -3.31704
C         -0.22551        4.11761       -2.44658
N          0.13575        3.92614       -1.17654
N         -0.55541        1.48153        0.91719
C         -0.96546        2.04126        2.21370
C         -2.48837        1.84474        2.37377
C         -3.08440        3.24500        2.38892
N         -2.02255        4.01535        3.02051
C         -0.78281        3.56991        2.37613
C          0.39205        4.00063        3.25829
C          0.20139        5.42411        3.81314
C         -0.85114        6.21251        3.03169
C         -2.19384        5.46439        2.94061
H          0.58826       -0.07222       -0.95022
H          0.66093       -0.86964        0.62786
H          2.14326       -0.26890       -0.12153
H          1.37931        1.18965        1.71795
H          1.75221        3.29919        0.61753
H          2.64428        2.09663       -0.29908
H          1.81187        1.57167       -2.72038
H          0.25759        3.11316       -4.38776
H         -0.91111        4.92166       -2.68233
H         -0.92899        2.07507        0.16834
H         -0.47621        1.48573        3.02380
H         -2.68521        1.34217        3.32999
H         -2.94060        1.22685        1.58978
H         -4.01833        3.27951        2.95795
H         -3.28107        3.58009        1.36271
H         -0.69312        4.03592        1.38667
H          1.32042        3.96145        2.68032
H          0.52757        3.31353        4.10271
H          1.15819        5.95818        3.80814
H         -0.11342        5.35863        4.86246
H         -1.00528        7.19493        3.49207
H         -0.47057        6.39544        2.01824
H         -2.84240        5.78042        3.76575
H         -2.69022        5.76802        2.01005

--Link1--
%chk=JID_8988.chk
%mem=8GB
%nprocshared=4
# B3LYP/6-311++G(d,p) empiricaldispersion=gd3bj scf=xqc pop=npa geom=check

CID_81885095_JID_8988_Energie_neutraal

0 1

--Link1--
%chk=JID_8988.chk
%mem=8GB
%nprocshared=4
# B3LYP/6-311++G(d,p) empiricaldispersion=gd3bj scf=xqc pop=npa geom=check

CID_81885095_JID_8988_Energie_kation

1 2

--Link1--
%chk=JID_8988.chk
%mem=8GB
%nprocshared=4
# B3LYP/6-311++G(d,p) empiricaldispersion=gd3bj scf=xqc pop=npa geom=check

CID_81885095_JID_8988_Energie_anion

-1 2
