%chk=JID_7986.chk
%mem=8GB
%nprocshared=4
# opt freq B3LYP/6-31G(d) empiricaldispersion=gd3bj scf=xqc

CID_133349097_JID_7986_neutraal

0 1
C          1.08105       -0.00472        0.05838
C          0.29106       -1.01305       -0.76206
C          0.21075       -2.41151       -0.13881
N         -0.81746       -2.48527        0.91908
C         -1.36360       -3.83854        1.08634
C         -0.32056       -2.07004        2.18565
N          0.88336       -2.50949        2.60014
C          1.33978       -2.13381        3.80668
N          0.63617       -1.33209        4.61829
C         -0.56369       -0.90661        4.18724
C         -1.10801       -1.24367        2.97081
C         -2.43944       -0.72873        2.53621
N          2.59671       -2.56718        4.20974
C          3.19663       -3.61086        3.39766
C          2.90128       -2.55154        5.63669
C          4.15822       -1.72038        5.91014
C          3.95515       -0.23617        5.64006
H          2.06561       -0.39915        0.32859
H          0.55395        0.27597        0.97318
H          1.23261        0.91126       -0.52219
H         -0.71500       -0.62143       -0.95356
H          0.78583       -1.10616       -1.73690
H         -0.09197       -3.08766       -0.95008
H          1.19764       -2.76601        0.18400
H         -0.58147       -4.57068        1.32236
H         -2.12760       -3.87072        1.87225
H         -1.85374       -4.15519        0.15873
H         -1.08747       -0.25667        4.88203
H         -2.34828       -0.17450        1.59628
H         -3.14657       -1.55348        2.40343
H         -2.86536       -0.04528        3.27873
H          4.20769       -3.84264        3.75100
H          2.61055       -4.53596        3.44410
H          3.29804       -3.30026        2.35133
H          2.08251       -2.17836        6.26320
H          3.07878       -3.58000        5.97775
H          4.44146       -1.84914        6.96151
H          4.99771       -2.08488        5.30688
H          3.12572        0.16091        6.23380
H          4.85896        0.32161        5.90526
H          3.74428       -0.04763        4.58290

--Link1--
%chk=JID_7986.chk
%mem=8GB
%nprocshared=4
# B3LYP/6-311++G(d,p) empiricaldispersion=gd3bj scf=xqc pop=npa geom=check

CID_133349097_JID_7986_Energie_neutraal

0 1

--Link1--
%chk=JID_7986.chk
%mem=8GB
%nprocshared=4
# B3LYP/6-311++G(d,p) empiricaldispersion=gd3bj scf=xqc pop=npa geom=check

CID_133349097_JID_7986_Energie_kation

1 2

--Link1--
%chk=JID_7986.chk
%mem=8GB
%nprocshared=4
# B3LYP/6-311++G(d,p) empiricaldispersion=gd3bj scf=xqc pop=npa geom=check

CID_133349097_JID_7986_Energie_anion

-1 2
