%chk=JID_5819.chk
%mem=8GB
%nprocshared=4
# opt freq B3LYP/6-31G(d) empiricaldispersion=gd3bj scf=xqc

CID_64563671_JID_5819_neutraal

0 1
C          0.97116        0.01416        0.09470
C         -0.40515       -0.19462        0.70850
C         -0.45546        0.13209        2.20308
N         -0.21761        1.53287        2.48506
C          0.97981        2.05870        2.87924
O          2.01402        1.43629        3.08442
C          0.83277        3.57489        3.02115
C          1.10782        4.00453        4.45630
C          1.20103        5.51778        4.63276
C         -0.07423        6.28447        4.28561
C         -0.42487        6.24528        2.79958
C         -1.19982        5.00120        2.38148
N         -0.55588        3.73219        2.64383
C         -1.14005        2.52121        2.29897
O         -2.27619        2.38249        1.87279
H          1.25991        1.06941        0.11039
H          0.97023       -0.31404       -0.94967
H          1.73229       -0.56221        0.63003
H         -1.13631        0.41216        0.16211
H         -0.69374       -1.24338        0.57147
H         -1.45152       -0.12023        2.58485
H          0.27831       -0.47428        2.74577
H          1.47701        4.06031        2.28075
H          2.05874        3.56990        4.79000
H          0.33753        3.60567        5.12948
H          2.03687        5.90478        4.03670
H          1.45026        5.72402        5.68116
H          0.08700        7.33282        4.56700
H         -0.91425        5.92478        4.89145
H          0.48258        6.35158        2.19308
H         -1.05162        7.11613        2.56981
H         -1.39662        5.04619        1.30331
H         -2.18020        4.97876        2.87256

--Link1--
%chk=JID_5819.chk
%mem=8GB
%nprocshared=4
# B3LYP/6-311++G(d,p) empiricaldispersion=gd3bj scf=xqc pop=npa geom=check

CID_64563671_JID_5819_Energie_neutraal

0 1

--Link1--
%chk=JID_5819.chk
%mem=8GB
%nprocshared=4
# B3LYP/6-311++G(d,p) empiricaldispersion=gd3bj scf=xqc pop=npa geom=check

CID_64563671_JID_5819_Energie_kation

1 2

--Link1--
%chk=JID_5819.chk
%mem=8GB
%nprocshared=4
# B3LYP/6-311++G(d,p) empiricaldispersion=gd3bj scf=xqc pop=npa geom=check

CID_64563671_JID_5819_Energie_anion

-1 2
