%chk=JID_7659.chk
%mem=8GB
%nprocshared=4
# opt freq B3LYP/6-31G(d) empiricaldispersion=gd3bj scf=xqc

CID_76208153_JID_7659_neutraal

0 1
C          2.91400       -0.01100        0.00300
C          1.41745        0.05889       -0.05617
C          0.66128       -1.11614       -0.13714
C         -0.74772       -1.08727       -0.19206
C         -1.40536        0.15484       -0.08211
C         -0.63953        1.32885        0.00693
C          0.75474        1.28270        0.01875
C         -2.90471        0.27714       -0.06693
C         -1.49866       -2.39881       -0.32104
C         -0.94464       -3.30281       -1.41224
O         -0.16687       -4.22337       -1.15381
N         -1.27103       -3.07755       -2.71630
C         -2.09811       -2.02154       -3.28255
C         -1.26734       -0.81110       -3.74779
N         -1.80986        0.28026       -4.21373
O         -3.20563        0.19310       -4.23476
N          0.10334       -0.87927       -3.67414
H          3.23609       -0.31024        1.00520
H          3.29314       -0.73440       -0.72648
H          3.36681        0.95773       -0.23291
H          1.18363       -2.07361       -0.16099
H         -1.12924        2.29839        0.07742
H          1.31555        2.21097        0.10009
H         -3.31659        0.04891       -1.05351
H         -3.33747       -0.39650        0.67962
H         -3.22177        1.29124        0.19985
H         -1.42508       -2.93469        0.63384
H         -2.56798       -2.25957       -0.49848
H         -0.80146       -3.69344       -3.36932
H         -2.60467       -2.44436       -4.15613
H         -2.85079       -1.69975       -2.56204
H         -3.45685        1.04569       -4.63816
H          0.45437       -1.47910       -2.93435
H          0.52814        0.04219       -3.65550

--Link1--
%chk=JID_7659.chk
%mem=8GB
%nprocshared=4
# B3LYP/6-311++G(d,p) empiricaldispersion=gd3bj scf=xqc pop=npa geom=check

CID_76208153_JID_7659_Energie_neutraal

0 1

--Link1--
%chk=JID_7659.chk
%mem=8GB
%nprocshared=4
# B3LYP/6-311++G(d,p) empiricaldispersion=gd3bj scf=xqc pop=npa geom=check

CID_76208153_JID_7659_Energie_kation

1 2

--Link1--
%chk=JID_7659.chk
%mem=8GB
%nprocshared=4
# B3LYP/6-311++G(d,p) empiricaldispersion=gd3bj scf=xqc pop=npa geom=check

CID_76208153_JID_7659_Energie_anion

-1 2
