%chk=JID_10756.chk
%mem=8GB
%nprocshared=4
# opt freq B3LYP/6-31G(d) empiricaldispersion=gd3bj scf=xqc

CID_65219080_JID_10756_neutraal

0 1
C          0.91294       -0.03335        0.03616
C          0.36687       -1.41456       -0.28976
C          0.98317       -2.53353        0.55542
C          0.74852       -2.42363        2.07442
C         -0.72074       -2.37382        2.50988
N         -1.51394       -3.50160        2.04342
C         -2.53813       -4.14911        2.68954
O         -2.98315       -5.18902        2.20920
C         -3.02520       -3.60384        3.94424
C         -3.07052       -4.31574        5.12969
N         -3.57457       -3.50024        6.10443
C         -3.90257       -2.27368        5.57526
C         -4.46197       -1.14853        6.19284
C         -4.72167       -0.03168        5.39395
C         -4.43958       -0.04444        4.03069
C         -3.87868       -1.17712        3.42959
C         -3.58857       -2.31357        4.21493
C          1.44366       -3.51524        2.85872
O          1.76487       -3.44165        4.03480
O          1.65238       -4.65222        2.17246
H          0.62303        0.28535        1.04163
H          0.51719        0.70300       -0.67074
H          2.00515       -0.01573       -0.03258
H         -0.72364       -1.41290       -0.18712
H          0.57644       -1.62832       -1.34504
H          0.59993       -3.48993        0.17904
H          2.06516       -2.55916        0.36777
H          1.23160       -1.49576        2.40879
H         -0.77491       -2.31921        3.60216
H         -1.19514       -1.46985        2.11574
H         -1.29051       -3.93753        1.15738
H         -2.77392       -5.33224        5.35313
H         -3.71019       -3.76220        7.07120
H         -4.69666       -1.14002        7.25237
H         -5.16067        0.85623        5.84350
H         -4.66283        0.83018        3.42464
H         -3.67873       -1.17957        2.36200
H          2.05024       -5.26189        2.82951

--Link1--
%chk=JID_10756.chk
%mem=8GB
%nprocshared=4
# B3LYP/6-311++G(d,p) empiricaldispersion=gd3bj scf=xqc pop=npa geom=check

CID_65219080_JID_10756_Energie_neutraal

0 1

--Link1--
%chk=JID_10756.chk
%mem=8GB
%nprocshared=4
# B3LYP/6-311++G(d,p) empiricaldispersion=gd3bj scf=xqc pop=npa geom=check

CID_65219080_JID_10756_Energie_kation

1 2

--Link1--
%chk=JID_10756.chk
%mem=8GB
%nprocshared=4
# B3LYP/6-311++G(d,p) empiricaldispersion=gd3bj scf=xqc pop=npa geom=check

CID_65219080_JID_10756_Energie_anion

-1 2
