%chk=JID_6189.chk
%mem=8GB
%nprocshared=4
# opt freq B3LYP/6-31G(d) empiricaldispersion=gd3bj scf=xqc

CID_141172620_JID_6189_neutraal

0 1
C          0.94717        0.04539       -0.07176
C          1.03926       -1.47505       -0.00460
C          1.19535       -1.99936        1.42313
C          0.01267       -1.59969        2.29095
O         -1.13445       -1.78058        1.87098
C          0.27356       -1.04793        3.69690
C          1.43457       -0.07792        3.72678
C          1.28979        1.24845        3.59741
C         -0.05207        1.81585        3.45949
C         -0.22994        3.13473        3.03318
C         -1.51675        3.67244        2.93802
C         -2.63055        2.90386        3.28350
C         -2.46468        1.59129        3.72401
C         -1.17875        1.05283        3.80112
C         -0.97279       -0.35077        4.23762
O         -1.79434       -0.90674        4.96033
H          0.04627        0.41793        0.42452
H          0.90848        0.37143       -1.11612
H          1.82021        0.51213        0.39492
H          0.14606       -1.90726       -0.47065
H          1.89941       -1.80641       -0.59808
H          1.24819       -3.09382        1.42181
H          2.13835       -1.63938        1.84018
H          0.50178       -1.88782        4.36308
H          2.43163       -0.49236        3.85806
H          2.14509        1.91722        3.60733
H          0.62385        3.75331        2.76665
H         -1.65153        4.69601        2.59547
H         -3.62912        3.32750        3.20679
H         -3.32943        0.98713        3.98869

--Link1--
%chk=JID_6189.chk
%mem=8GB
%nprocshared=4
# B3LYP/6-311++G(d,p) empiricaldispersion=gd3bj scf=xqc pop=npa geom=check

CID_141172620_JID_6189_Energie_neutraal

0 1

--Link1--
%chk=JID_6189.chk
%mem=8GB
%nprocshared=4
# B3LYP/6-311++G(d,p) empiricaldispersion=gd3bj scf=xqc pop=npa geom=check

CID_141172620_JID_6189_Energie_kation

1 2

--Link1--
%chk=JID_6189.chk
%mem=8GB
%nprocshared=4
# B3LYP/6-311++G(d,p) empiricaldispersion=gd3bj scf=xqc pop=npa geom=check

CID_141172620_JID_6189_Energie_anion

-1 2
