%chk=JID_6326.chk
%mem=8GB
%nprocshared=4
# opt freq B3LYP/6-31G(d) empiricaldispersion=gd3bj scf=xqc

CID_23006459_JID_6326_neutraal

0 1
C          1.04296       -0.05104        0.07450
C          0.82647       -1.43192       -0.42065
C          1.40604       -2.61802       -0.02570
C          0.82733       -3.62817       -0.83448
N         -0.07601       -3.09478       -1.67953
N         -0.04788       -1.76844       -1.42315
C         -0.91980       -0.87712       -2.18778
C         -0.66327       -0.99131       -3.69097
C         -2.38997       -1.12642       -1.85328
C          1.11634       -5.05370       -0.79172
N          1.93087       -5.57611        0.08963
N          1.92125       -6.92197       -0.19779
C          1.07710       -7.18965       -1.27611
S          0.80113       -8.70273       -1.89271
N          0.56150       -5.96819       -1.64898
N         -0.30856       -5.73020       -2.72273
H          0.10716        0.38074        0.44335
H          1.43708        0.58860       -0.72151
H          1.76315       -0.04079        0.89920
H          2.15313       -2.75227        0.74545
H         -0.67439        0.14746       -1.88805
H         -0.92586       -1.98406       -4.07303
H         -1.25654       -0.25305       -4.24079
H          0.39328       -0.81480       -3.92083
H         -2.56732       -1.02669       -0.77670
H         -3.03209       -0.40493       -2.36932
H         -2.70674       -2.13243       -2.15001
H          2.47008       -7.59333        0.32598
H         -1.20969       -6.14106       -2.47750
H         -0.47719       -4.71272       -2.74193

--Link1--
%chk=JID_6326.chk
%mem=8GB
%nprocshared=4
# B3LYP/6-311++G(d,p) empiricaldispersion=gd3bj scf=xqc pop=npa geom=check

CID_23006459_JID_6326_Energie_neutraal

0 1

--Link1--
%chk=JID_6326.chk
%mem=8GB
%nprocshared=4
# B3LYP/6-311++G(d,p) empiricaldispersion=gd3bj scf=xqc pop=npa geom=check

CID_23006459_JID_6326_Energie_kation

1 2

--Link1--
%chk=JID_6326.chk
%mem=8GB
%nprocshared=4
# B3LYP/6-311++G(d,p) empiricaldispersion=gd3bj scf=xqc pop=npa geom=check

CID_23006459_JID_6326_Energie_anion

-1 2
