%chk=JID_9349.chk
%mem=8GB
%nprocshared=4
# opt freq B3LYP/6-31G(d) empiricaldispersion=gd3bj scf=xqc

CID_5370645_JID_9349_neutraal

0 1
S   -1.7424    3.4766    1.0864
S   -4.2134   -2.4940    0.1024
O    1.9391    0.1909   -0.9010
O    2.0871   -0.8317    1.9262
O    4.1165   -1.3612   -1.7339
N   -0.3068    0.4456   -0.1649
N   -1.7126    3.0920   -1.5628
N   -1.7322   -3.4991    0.1223
C    1.0209    1.0618   -0.2184
C    1.6113    1.3765    1.1559
C    2.6785    0.3184    1.3372
C    3.1249    0.0671   -0.0962
C    3.7703   -1.2801   -0.3607
C   -1.5061    1.1117   -0.2022
C   -0.5386   -0.9035   -0.0681
C   -1.9018   -1.0993   -0.0436
C   -2.5139    0.1755   -0.1285
C   -1.6408    2.5330   -0.2995
C   -2.5399   -2.3802    0.0495
H    0.9298    1.9713   -0.8215
H    0.8657    1.3921    1.9569
H    2.0878    2.3636    1.1142
H    3.5046    0.6418    1.9775
H    3.7941    0.8728   -0.4250
H    3.0755   -2.1013   -0.1605
H    4.6711   -1.4229    0.2435
H    0.2866   -1.6010   -0.0269
H    1.7816   -0.5817    2.8148
H   -3.5692    0.4141   -0.1386
H    4.7618   -0.6572   -1.9172
H   -1.6609    2.5294   -2.4062
H   -1.8185    4.0935   -1.6858
H   -0.7190   -3.4689    0.1020
H   -2.1449   -4.4231    0.2000

--Link1--
%chk=JID_9349.chk
%mem=8GB
%nprocshared=4
# B3LYP/6-311++G(d,p) empiricaldispersion=gd3bj scf=xqc pop=npa geom=check

CID_5370645_JID_9349_Energie_neutraal

0 1

--Link1--
%chk=JID_9349.chk
%mem=8GB
%nprocshared=4
# B3LYP/6-311++G(d,p) empiricaldispersion=gd3bj scf=xqc pop=npa geom=check

CID_5370645_JID_9349_Energie_kation

1 2

--Link1--
%chk=JID_9349.chk
%mem=8GB
%nprocshared=4
# B3LYP/6-311++G(d,p) empiricaldispersion=gd3bj scf=xqc pop=npa geom=check

CID_5370645_JID_9349_Energie_anion

-1 2
