%chk=JID_5299.chk
%mem=8GB
%nprocshared=4
# opt freq B3LYP/6-31G(d) empiricaldispersion=gd3bj scf=xqc

CID_112659442_JID_5299_neutraal

0 1
C          1.05743       -0.05939        0.05634
C          0.39451        1.15513        0.69645
C          0.63451        2.46748       -0.08374
C         -0.01339        2.52629       -1.49248
S         -1.75358        3.06545       -1.65835
C         -2.61153        1.55675       -1.15233
N          0.43640        3.71050        0.70972
C          1.25210        4.85246        0.30394
C         -0.69172        3.86382        1.51377
O         -1.44048        2.92847        1.80621
C         -0.98706        5.22462        2.12514
C         -0.82561        5.15980        3.63721
C          0.62949        5.00476        4.01889
O          1.45411        5.88328        3.76461
C          1.03087        3.72342        4.69936
H          0.61394       -0.29590       -0.91471
H          0.92982       -0.93637        0.69940
H          2.13105        0.10264       -0.08135
H         -0.66895        0.93596        0.80599
H          0.80114        1.26335        1.71010
H          1.71797        2.44687       -0.27345
H          0.54896        3.26756       -2.07400
H          0.11485        1.58255       -2.03070
H         -2.14785        0.67341       -1.59863
H         -2.62870        1.46252       -0.06602
H         -3.64782        1.60992       -1.49777
H          0.68615        5.45522       -0.41213
H          1.51828        5.46089        1.16937
H          2.18525        4.51727       -0.15754
H         -0.39934        6.03695        1.69782
H         -2.03175        5.45570        1.88171
H         -1.19371        6.08181        4.10080
H         -1.40335        4.33368        4.06634
H          0.47311        3.61401        5.63258
H          0.83146        2.87683        4.03821
H          2.09978        3.74815        4.92883

--Link1--
%chk=JID_5299.chk
%mem=8GB
%nprocshared=4
# B3LYP/6-311++G(d,p) empiricaldispersion=gd3bj scf=xqc pop=npa geom=check

CID_112659442_JID_5299_Energie_neutraal

0 1

--Link1--
%chk=JID_5299.chk
%mem=8GB
%nprocshared=4
# B3LYP/6-311++G(d,p) empiricaldispersion=gd3bj scf=xqc pop=npa geom=check

CID_112659442_JID_5299_Energie_kation

1 2

--Link1--
%chk=JID_5299.chk
%mem=8GB
%nprocshared=4
# B3LYP/6-311++G(d,p) empiricaldispersion=gd3bj scf=xqc pop=npa geom=check

CID_112659442_JID_5299_Energie_anion

-1 2
