%chk=JID_8818.chk
%mem=8GB
%nprocshared=4
# opt freq B3LYP/6-31G(d) empiricaldispersion=gd3bj scf=xqc

CID_116812195_JID_8818_neutraal

0 1
C          0.93996        0.06463        0.04709
C          0.89151       -1.42552        0.36105
C          1.41836       -1.75300        1.75864
N          0.50466       -1.29457        2.78703
C         -0.41663       -2.12773        3.31602
N         -0.43340       -3.43317        3.17551
C         -1.48221       -3.97668        3.89012
C         -2.28170       -3.07505        4.56122
S         -1.69537       -1.48948        4.28239
C         -3.43380       -3.30848        5.42327
C         -4.71172       -2.87410        5.04810
C         -5.80454       -3.12202        5.89144
C         -5.63328       -3.79618        7.10785
C         -4.36058       -4.22897        7.47805
C         -3.26931       -3.99052        6.63847
N         -7.14505       -2.67551        5.49289
O         -7.26399       -2.11810        4.39274
O         -8.07983       -2.88488        6.27922
H          0.28766        0.63550        0.71474
H          0.60627        0.24333       -0.98006
H          1.95876        0.45304        0.14413
H         -0.13561       -1.79010        0.24236
H          1.50727       -1.95200       -0.37774
H          1.60398       -2.83116        1.83664
H          2.38862       -1.26642        1.91155
H          0.33447       -0.29765        2.83598
H         -1.61804       -5.05139        3.88678
H         -4.84728       -2.35420        4.10101
H         -6.47384       -3.99100        7.77128
H         -4.21556       -4.75133        8.42147
H         -2.28142       -4.33096        6.94654

--Link1--
%chk=JID_8818.chk
%mem=8GB
%nprocshared=4
# B3LYP/6-311++G(d,p) empiricaldispersion=gd3bj scf=xqc pop=npa geom=check

CID_116812195_JID_8818_Energie_neutraal

0 1

--Link1--
%chk=JID_8818.chk
%mem=8GB
%nprocshared=4
# B3LYP/6-311++G(d,p) empiricaldispersion=gd3bj scf=xqc pop=npa geom=check

CID_116812195_JID_8818_Energie_kation

1 2

--Link1--
%chk=JID_8818.chk
%mem=8GB
%nprocshared=4
# B3LYP/6-311++G(d,p) empiricaldispersion=gd3bj scf=xqc pop=npa geom=check

CID_116812195_JID_8818_Energie_anion

-1 2
