%chk=JID_9497.chk
%mem=8GB
%nprocshared=4
# opt=(cartesian,calcfc) freq B3LYP/6-31G(d) empiricaldispersion=gd3bj scf=xqc

CID_116793132_JID_9497_neutraal

0 1
6	-5.166924	 2.678896	 -0.073906
6	-5.659559	 1.378992	 0.571146
6	-5.128636	 0.114751	 -0.107106
7	-3.679962	 -0.001851	 0.024524
6	-3.145145	 -1.226045	 -0.566275
6	-1.645305	 -1.294664	 -0.412191
6	-1.038796	 -0.972934	 0.797731
6	0.339305	 -1.043170	 0.996974
6	1.121643	 -1.456792	 -0.109979
6	0.547272	 -1.779584	 -1.317759
6	-0.831090	 -1.703477	 -1.486224
8	2.497533	 -1.593509	 0.046530
6	3.217887	 -0.408872	 -0.023900
6	2.839201	 0.827647	 -0.398475
7	3.927539	 1.625801	 -0.276033
7	5.015477	 0.949969	 0.149338
6	4.589060	 -0.320277	 0.321026
6	4.067972	 3.020923	 -0.655310
6	0.986890	 -0.716884	 2.311414
1	-4.081133	 2.798210	 0.028236
1	-5.628520	 3.555884	 0.393282
1	-5.409830	 2.705462	 -1.144525
1	-5.367606	 1.351808	 1.627373
1	-6.756152	 1.351701	 0.540420
1	-5.570785	 -0.767738	 0.374108
1	-5.460682	 0.092946	 -1.164874
1	-3.230137	 0.791275	 -0.429318
1	-3.416059	 -1.347252	 -1.633563
1	-3.614904	 -2.070711	 -0.037850
1	-1.675826	 -0.645065	 1.623413
1	1.195333	 -2.099769	 -2.139766
1	-1.285579	 -1.955908	 -2.438304
1	1.870757	 1.224232	 -0.748423
1	5.255173	 -1.078577	 0.677192
1	4.906925	 3.440012	 -0.107111
1	4.248200	 3.125248	 -1.731827
1	3.149457	 3.557970	 -0.391931
1	0.231369	 -0.594230	 3.094889
1	1.683934	 -1.505265	 2.616577
1	1.571768	 0.209352	 2.251961

--Link1--
%chk=JID_9497.chk
%mem=8GB
%nprocshared=4
# B3LYP/6-311++G(d,p) empiricaldispersion=gd3bj scf=xqc pop=npa geom=check

CID_116793132_JID_9497_Energie_neutraal

0 1

--Link1--
%chk=JID_9497.chk
%mem=8GB
%nprocshared=4
# B3LYP/6-311++G(d,p) empiricaldispersion=gd3bj scf=xqc pop=npa geom=check

CID_116793132_JID_9497_Energie_kation

1 2

--Link1--
%chk=JID_9497.chk
%mem=8GB
%nprocshared=4
# B3LYP/6-311++G(d,p) empiricaldispersion=gd3bj scf=xqc pop=npa geom=check

CID_116793132_JID_9497_Energie_anion

-1 2
