%chk=JID_9370.chk
%mem=8GB
%nprocshared=4
# opt freq B3LYP/6-31G(d) empiricaldispersion=gd3bj scf=xqc

CID_147355913_JID_9370_neutraal

0 1
C          1.30600        0.17900       -0.14100
C          0.66227       -1.12785       -0.57393
C         -0.82940       -0.84104       -0.65489
N         -1.07599        0.38051        0.10777
C          0.15817        1.15876        0.05656
C         -1.59152        0.15342        1.46309
N         -0.60117       -0.57707        2.26671
C         -1.09003       -1.49028        3.13285
C         -2.35259       -1.93101        3.25926
C         -3.23734       -1.33304        2.23627
N         -2.94687       -0.41615        1.38574
C         -2.79394       -2.95153        4.21763
C         -3.55398       -4.04969        3.79647
C         -3.98658       -5.00917        4.71374
C         -3.66159       -4.88101        6.06372
C         -2.89370       -3.79675        6.50789
C         -2.47240       -2.83454        5.57824
C         -2.56061       -3.64896        7.96590
O         -3.71276       -3.23921        8.69363
H          1.86522        0.03360        0.79000
H          2.01119        0.54354       -0.89549
H          0.87141       -1.91169        0.16277
H          1.05624       -1.46862       -1.53711
H         -1.09209       -0.64149       -1.70157
H         -1.43108       -1.70506       -0.35202
H          0.31533        1.81588        0.91964
H          0.10461        1.81762       -0.81940
H         -1.73652        1.14737        1.91012
H         -0.36733       -1.95739        3.80227
H         -4.25975       -1.74098        2.20759
H         -3.79879       -4.16971        2.74338
H         -4.57344       -5.85667        4.37133
H         -4.00800       -5.63005        6.77213
H         -1.88701       -1.97575        5.90613
H         -2.20164       -4.59770        8.37813
H         -1.77376       -2.90339        8.12058
H         -4.26513       -2.73079        8.07318

--Link1--
%chk=JID_9370.chk
%mem=8GB
%nprocshared=4
# B3LYP/6-311++G(d,p) empiricaldispersion=gd3bj scf=xqc pop=npa geom=check

CID_147355913_JID_9370_Energie_neutraal

0 1

--Link1--
%chk=JID_9370.chk
%mem=8GB
%nprocshared=4
# B3LYP/6-311++G(d,p) empiricaldispersion=gd3bj scf=xqc pop=npa geom=check

CID_147355913_JID_9370_Energie_kation

1 2

--Link1--
%chk=JID_9370.chk
%mem=8GB
%nprocshared=4
# B3LYP/6-311++G(d,p) empiricaldispersion=gd3bj scf=xqc pop=npa geom=check

CID_147355913_JID_9370_Energie_anion

-1 2
