%chk=JID_8790.chk
%mem=8GB
%nprocshared=4
# opt freq B3LYP/6-31G(d) empiricaldispersion=gd3bj scf=xqc

CID_88452538_JID_8790_neutraal

0 1
C          1.05356       -0.05415       -0.06480
C         -0.25030       -0.05415       -0.06480
C         -1.77030       -0.05415       -0.06480
C         -2.38399        0.49176       -1.36196
C         -2.04221       -0.28726       -2.61583
C         -2.83412       -1.38996       -2.97919
C         -2.52885       -2.14934       -4.11106
C         -1.42615       -1.82111       -4.89663
C         -0.63101       -0.72936       -4.55406
C         -0.94820        0.04247       -3.43231
O         -0.08775        1.06114       -3.09912
C         -0.44847        2.34304       -3.50550
C          0.33449        3.37425       -3.00711
C          0.00258        4.68103       -3.34958
C         -1.09224        4.90776       -4.17727
C         -1.81108        3.81329       -4.63099
N         -1.51552        2.53534       -4.31396
O         -2.23341       -1.37544        0.20738
H          2.11889       -0.06147       -0.06829
H         -2.10569        0.57438        0.76808
H         -3.47781        0.48951       -1.25901
H         -2.10776        1.54437       -1.48468
H         -3.69699       -1.66636       -2.37547
H         -3.15245       -2.99871       -4.37831
H         -1.18609       -2.41394       -5.77495
H          0.23186       -0.47289       -5.16175
H          1.17640        3.16229       -2.35746
H          0.58916        5.51318       -2.97207
H         -1.37945        5.91395       -4.46184
H         -2.67323        3.93950       -5.28008
H         -1.77511       -1.95537       -0.42694

--Link1--
%chk=JID_8790.chk
%mem=8GB
%nprocshared=4
# B3LYP/6-311++G(d,p) empiricaldispersion=gd3bj scf=xqc pop=npa geom=check

CID_88452538_JID_8790_Energie_neutraal

0 1

--Link1--
%chk=JID_8790.chk
%mem=8GB
%nprocshared=4
# B3LYP/6-311++G(d,p) empiricaldispersion=gd3bj scf=xqc pop=npa geom=check

CID_88452538_JID_8790_Energie_kation

1 2

--Link1--
%chk=JID_8790.chk
%mem=8GB
%nprocshared=4
# B3LYP/6-311++G(d,p) empiricaldispersion=gd3bj scf=xqc pop=npa geom=check

CID_88452538_JID_8790_Energie_anion

-1 2
