%chk=JID_10668.chk
%mem=8GB
%nprocshared=4
# opt freq B3LYP/6-31G(d) empiricaldispersion=gd3bj scf=xqc

CID_108104782_JID_10668_neutraal

0 1
C          1.02801        0.05041        0.08169
C          0.39793       -0.50590        1.35929
C          1.29824       -0.16100        2.55683
C         -1.10209       -0.09971        1.58463
C         -1.88563       -1.30688        2.15936
C         -2.24260       -2.13257        0.92378
N         -2.36991       -1.14895       -0.13987
C         -1.92296        0.15782        0.30679
C         -2.77331       -1.33622       -1.44111
O         -2.77607       -0.43837       -2.28023
C         -3.16792       -2.70935       -1.84470
C         -4.31997       -3.21328       -1.37656
C         -4.74140       -4.56474       -1.81342
O         -5.76243       -5.08012       -1.37464
N         -3.92126       -5.19139       -2.72133
C         -2.76975       -4.64237       -3.22394
C         -2.37259       -3.43197       -2.81534
C         -1.23331        1.15344        2.43005
O         -1.07700        2.29923        2.04079
O         -1.49599        0.91545        3.72888
H          0.95011        1.14175        0.04042
H          0.55415       -0.37078       -0.81059
H          2.09099       -0.20975        0.02523
H          0.45084       -1.59764        1.25564
H          1.42158        0.92191        2.67050
H          0.89236       -0.56557        3.48920
H          2.29878       -0.58668        2.42227
H         -2.81192       -0.97499        2.64656
H         -1.32043       -1.88889        2.89451
H         -1.44458       -2.83095        0.65059
H         -3.17049       -2.69116        1.06472
H         -2.83243        0.73617        0.52075
H         -1.39209        0.69695       -0.48234
H         -4.97553       -2.68968       -0.69386
H         -4.22647       -6.10696       -3.02990
H         -2.22198       -5.22529       -3.95712
H         -1.47846       -2.96119       -3.21209
H         -1.52413        1.80717        4.13711

--Link1--
%chk=JID_10668.chk
%mem=8GB
%nprocshared=4
# B3LYP/6-311++G(d,p) empiricaldispersion=gd3bj scf=xqc pop=npa geom=check

CID_108104782_JID_10668_Energie_neutraal

0 1

--Link1--
%chk=JID_10668.chk
%mem=8GB
%nprocshared=4
# B3LYP/6-311++G(d,p) empiricaldispersion=gd3bj scf=xqc pop=npa geom=check

CID_108104782_JID_10668_Energie_kation

1 2

--Link1--
%chk=JID_10668.chk
%mem=8GB
%nprocshared=4
# B3LYP/6-311++G(d,p) empiricaldispersion=gd3bj scf=xqc pop=npa geom=check

CID_108104782_JID_10668_Energie_anion

-1 2
