%chk=JID_9064.chk
%mem=8GB
%nprocshared=4
# opt freq B3LYP/6-31G(d) empiricaldispersion=gd3bj scf=xqc

CID_43252753_JID_9064_neutraal

0 1
C          0.92198       -0.06222        0.00643
C          0.64002        1.11422        0.92831
C          0.56952        2.46258        0.19175
C         -0.66311        2.56551       -0.70500
N          0.55309        3.55260        1.16225
C          1.61168        4.14456        1.80229
O          1.35639        4.94225        2.70508
C          3.03593        3.80739        1.31998
N          4.06285        4.08500        2.34593
C          3.96581        3.17980        3.50900
C          4.43428        1.72627        3.24588
N          5.79827        1.64836        2.68650
C          5.89827        2.53398        1.50626
C          5.42488        3.97941        1.78960
C          6.19364        0.27441        2.33801
C          6.94601       -0.45974        3.45785
C          6.14309       -0.88224        4.69068
C          4.91154       -1.74728        4.41588
N          5.25559       -3.01721        3.78834
H          0.10454       -0.22339       -0.70205
H          1.03760       -0.97926        0.59320
H          1.84589        0.09546       -0.55894
H         -0.29491        0.93450        1.47380
H          1.43015        1.14757        1.68761
H          1.45798        2.58350       -0.43719
H         -1.58569        2.42712       -0.13044
H         -0.71524        3.55369       -1.17583
H         -0.64122        1.81910       -1.50442
H         -0.33340        3.80672        1.58468
H          3.08998        2.76740        0.99178
H          3.20769        4.44701        0.44536
H          4.58305        3.60118        4.31412
H          2.94590        3.16205        3.90967
H          3.71936        1.23337        2.57588
H          4.38682        1.19984        4.20177
H          5.32229        2.11938        0.66856
H          6.94556        2.58572        1.18345
H          5.50717        4.57843        0.87421
H          6.12031        4.44104        2.50352
H          5.34563       -0.31395        1.96802
H          6.90268        0.31050        1.49885
H          7.40976       -1.35363        3.02102
H          7.78398        0.16668        3.79150
H          6.81707       -1.43279        5.36080
H          5.84085        0.00658        5.25462
H          4.41309       -1.95731        5.36873
H          4.18772       -1.21605        3.79077
H          4.41006       -3.57061        3.65595
H          5.64307       -2.85945        2.86042

--Link1--
%chk=JID_9064.chk
%mem=8GB
%nprocshared=4
# B3LYP/6-311++G(d,p) empiricaldispersion=gd3bj scf=xqc pop=npa geom=check

CID_43252753_JID_9064_Energie_neutraal

0 1

--Link1--
%chk=JID_9064.chk
%mem=8GB
%nprocshared=4
# B3LYP/6-311++G(d,p) empiricaldispersion=gd3bj scf=xqc pop=npa geom=check

CID_43252753_JID_9064_Energie_kation

1 2

--Link1--
%chk=JID_9064.chk
%mem=8GB
%nprocshared=4
# B3LYP/6-311++G(d,p) empiricaldispersion=gd3bj scf=xqc pop=npa geom=check

CID_43252753_JID_9064_Energie_anion

-1 2
