%chk=JID_10122.chk
%mem=8GB
%nprocshared=4
# opt freq B3LYP/6-31G(d) empiricaldispersion=gd3bj scf=xqc

CID_105738608_JID_10122_neutraal

0 1
C          1.05527        0.06782       -0.04843
C          0.55136       -1.05191       -0.94021
C          1.28920       -2.38213       -0.78197
C          0.21335       -3.34699       -1.25112
C         -1.03977       -2.73768       -0.66153
O         -0.82394       -1.32171       -0.60771
C          2.57428       -2.50302       -1.59654
N          3.71746       -1.98819       -0.83348
S          5.26385       -2.28385       -1.43424
O          5.17357       -2.47412       -2.86403
O          6.11464       -1.27150       -0.84949
C          5.66884       -3.83922       -0.67718
C          5.35310       -5.03210       -1.33762
C          5.69761       -6.26948       -0.76848
C          6.37988       -6.28905        0.46526
C          6.70766       -5.08434        1.10702
C          6.35604       -3.85908        0.53761
C          6.75949       -7.52660        1.09013
N          7.06314       -8.52618        1.59498
C          5.32842       -7.54159       -1.48449
H          1.05540       -0.23739        1.00353
H          0.39336        0.93785       -0.12033
H          2.06403        0.38311       -0.32486
H          0.56178       -0.71618       -1.98455
H          1.48635       -2.58082        0.28079
H          0.37528       -4.37700       -0.92073
H          0.14711       -3.34740       -2.34634
H         -1.20950       -3.08882        0.36163
H         -1.93121       -2.95290       -1.25736
H          2.75237       -3.55881       -1.82770
H          2.48610       -1.95425       -2.54030
H          3.66160       -1.05221       -0.43388
H          4.84214       -4.99756       -2.29884
H          7.24512       -5.09447        2.05476
H          6.62521       -2.93264        1.04133
H          4.62820       -8.12652       -0.87934
H          4.84323       -7.33450       -2.44434
H          6.22246       -8.13844       -1.69122

--Link1--
%chk=JID_10122.chk
%mem=8GB
%nprocshared=4
# B3LYP/6-311++G(d,p) empiricaldispersion=gd3bj scf=xqc pop=npa geom=check

CID_105738608_JID_10122_Energie_neutraal

0 1

--Link1--
%chk=JID_10122.chk
%mem=8GB
%nprocshared=4
# B3LYP/6-311++G(d,p) empiricaldispersion=gd3bj scf=xqc pop=npa geom=check

CID_105738608_JID_10122_Energie_kation

1 2

--Link1--
%chk=JID_10122.chk
%mem=8GB
%nprocshared=4
# B3LYP/6-311++G(d,p) empiricaldispersion=gd3bj scf=xqc pop=npa geom=check

CID_105738608_JID_10122_Energie_anion

-1 2
