%chk=JID_6674.chk
%mem=8GB
%nprocshared=4
# opt freq B3LYP/6-31G(d) empiricaldispersion=gd3bj scf=xqc

CID_146517956_JID_6674_neutraal

0 1
C          1.05469        0.08363        0.00381
C          0.51948        0.27624        1.42285
C          0.98641        1.63053        1.96732
C         -1.02071        0.19168        1.50090
C         -1.65583       -1.13051        1.00567
C         -1.15676       -2.41498        1.68539
C         -1.68374       -2.69969        3.07597
O         -2.64466       -3.45547        3.24262
C         -0.96675       -2.07791        4.24492
N         -3.13329       -1.07322        0.89700
C         -3.70798       -1.62158       -0.32771
C         -3.91636       -0.75413        2.00997
O         -3.43109       -0.30184        3.05161
C         -5.43756       -0.95255        1.92769
N         -6.05188        0.20641        1.25562
C         -7.50335        0.09383        1.27036
H          0.58617        0.78408       -0.69566
H          0.87419       -0.93348       -0.35645
H          2.13735        0.24759       -0.02895
H          0.95609       -0.49722        2.06500
H          0.59542        2.45771        1.36504
H          0.64910        1.77249        2.99957
H          2.07969        1.69578        1.96356
H         -1.30547        0.39455        2.53575
H         -1.44874        1.01541        0.91245
H         -1.31508       -1.21636       -0.03422
H         -1.45707       -3.27360        1.06860
H         -0.06331       -2.45867        1.71395
H          0.09682       -2.32454        4.19562
H         -1.10054       -0.99659        4.25056
H         -1.37189       -2.48328        5.17666
H         -4.74994       -1.33580       -0.47003
H         -3.14734       -1.25007       -1.19087
H         -3.63759       -2.71223       -0.28590
H         -5.67048       -1.89546        1.42284
H         -5.80878       -1.04134        2.95653
H         -5.77547        1.04658        1.76833
H         -7.89506        0.06341        2.29233
H         -7.94112        0.96208        0.76823
H         -7.83525       -0.80007        0.73245

--Link1--
%chk=JID_6674.chk
%mem=8GB
%nprocshared=4
# B3LYP/6-311++G(d,p) empiricaldispersion=gd3bj scf=xqc pop=npa geom=check

CID_146517956_JID_6674_Energie_neutraal

0 1

--Link1--
%chk=JID_6674.chk
%mem=8GB
%nprocshared=4
# B3LYP/6-311++G(d,p) empiricaldispersion=gd3bj scf=xqc pop=npa geom=check

CID_146517956_JID_6674_Energie_kation

1 2

--Link1--
%chk=JID_6674.chk
%mem=8GB
%nprocshared=4
# B3LYP/6-311++G(d,p) empiricaldispersion=gd3bj scf=xqc pop=npa geom=check

CID_146517956_JID_6674_Energie_anion

-1 2
