%chk=JID_5264.chk
%mem=8GB
%nprocshared=4
# opt freq B3LYP/6-31G(d) empiricaldispersion=gd3bj scf=xqc

CID_42954981_JID_5264_neutraal

0 1
C          0.91525        0.03391        0.04084
C          0.51119        0.70764       -1.26210
C          1.00230       -0.00142       -2.53030
C          0.51554       -1.46324       -2.63582
N          0.99445       -2.17556       -3.82799
C          2.42159       -1.91714       -4.07666
C          2.91502       -0.48177       -3.80825
O          2.43887        0.02718       -2.55501
C          0.11457       -2.15269       -5.00205
C         -0.05261       -0.79470       -5.67909
O          0.88748       -0.21210       -6.22562
N         -1.29213       -0.20007       -5.71241
C         -2.02415       -0.04063       -4.57768
O         -2.07431        1.01382       -3.96058
N         -2.75479       -1.11553       -4.19856
H          0.41736       -0.93242        0.16307
H          0.62509        0.66069        0.89053
H          1.99701       -0.12236        0.09297
H         -0.58070        0.79890       -1.29218
H          0.92192        1.72498       -1.25210
H          0.63924        0.58456       -3.38226
H          0.91438       -2.02588       -1.78244
H         -0.57340       -1.52354       -2.54666
H          2.96777       -2.57370       -3.38632
H          2.72027       -2.23688       -5.08193
H          4.00941       -0.47704       -3.76636
H          2.62489        0.21112       -4.60224
H          0.51615       -2.83183       -5.76564
H         -0.85211       -2.58967       -4.74228
H         -1.10412        0.72366       -6.08866
H         -3.10698       -1.72564       -4.92363
H         -3.40189       -0.93284       -3.43990

--Link1--
%chk=JID_5264.chk
%mem=8GB
%nprocshared=4
# B3LYP/6-311++G(d,p) empiricaldispersion=gd3bj scf=xqc pop=npa geom=check

CID_42954981_JID_5264_Energie_neutraal

0 1

--Link1--
%chk=JID_5264.chk
%mem=8GB
%nprocshared=4
# B3LYP/6-311++G(d,p) empiricaldispersion=gd3bj scf=xqc pop=npa geom=check

CID_42954981_JID_5264_Energie_kation

1 2

--Link1--
%chk=JID_5264.chk
%mem=8GB
%nprocshared=4
# B3LYP/6-311++G(d,p) empiricaldispersion=gd3bj scf=xqc pop=npa geom=check

CID_42954981_JID_5264_Energie_anion

-1 2
