%chk=JID_7833.chk
%mem=8GB
%nprocshared=4
# opt freq B3LYP/6-31G(d) empiricaldispersion=gd3bj scf=xqc

CID_61638393_JID_7833_neutraal

0 1
C          0.94851        0.08479       -0.01261
C          0.27808       -0.92479       -0.93553
C          0.57057       -2.40623       -0.58522
C          0.02056       -2.82140        0.84404
C         -1.48235       -2.97137        0.85304
C         -2.37989       -3.89315        0.34658
C         -3.67249       -3.44682        0.71316
C         -3.48889       -2.28483        1.42193
O         -2.16879       -1.98906        1.51411
N          0.76033       -3.92964        1.52099
C          0.85929       -5.19491        0.80023
C          1.77180       -6.19372        1.51951
C          1.38154       -6.39625        2.97717
C          1.22717       -5.05824        3.68868
C          0.32056       -4.10095        2.91520
O          0.18217       -7.16428        3.07054
N          0.06216       -3.18996       -1.73689
H          0.48989        0.09846        0.97965
H          0.84697        1.09294       -0.42807
H          2.01620       -0.12883        0.09700
H         -0.80272       -0.73636       -0.94686
H          0.63933       -0.72197       -1.95313
H          1.66170       -2.52611       -0.57098
H          0.23698       -1.96013        1.48749
H         -2.13706       -4.77926       -0.22164
H         -4.62153       -3.91349        0.48936
H         -4.15913       -1.58565        1.90266
H          1.31103       -5.04054       -0.18275
H         -0.12529       -5.64833        0.64875
H          2.80576       -5.82827        1.47209
H          1.73753       -7.15042        0.98484
H          2.15789       -6.98381        3.47918
H          0.80814       -5.21122        4.69013
H          2.21500       -4.59628        3.81095
H          0.34077       -3.13567        3.43640
H         -0.71204       -4.46735        2.96140
H         -0.54877       -6.65018        2.69011
H          0.10999       -4.18303       -1.53428
H         -0.92653       -2.97734       -1.87336

--Link1--
%chk=JID_7833.chk
%mem=8GB
%nprocshared=4
# B3LYP/6-311++G(d,p) empiricaldispersion=gd3bj scf=xqc pop=npa geom=check

CID_61638393_JID_7833_Energie_neutraal

0 1

--Link1--
%chk=JID_7833.chk
%mem=8GB
%nprocshared=4
# B3LYP/6-311++G(d,p) empiricaldispersion=gd3bj scf=xqc pop=npa geom=check

CID_61638393_JID_7833_Energie_kation

1 2

--Link1--
%chk=JID_7833.chk
%mem=8GB
%nprocshared=4
# B3LYP/6-311++G(d,p) empiricaldispersion=gd3bj scf=xqc pop=npa geom=check

CID_61638393_JID_7833_Energie_anion

-1 2
