%chk=JID_7210.chk
%mem=8GB
%nprocshared=4
# opt freq B3LYP/6-31G(d) empiricaldispersion=gd3bj scf=xqc

CID_55030399_JID_7210_neutraal

0 1
C          1.05761        0.05053       -0.06425
C          0.24401        0.64698        1.09032
C          0.95900        1.90850        1.60130
C         -1.22798        0.83673        0.70162
C         -1.72587        2.13275        0.44136
C         -3.05517        2.34688        0.08315
C         -3.91352        1.26760       -0.03561
C         -3.44006       -0.02356        0.20097
C         -2.11245       -0.27384        0.58568
N         -1.61833       -1.57407        0.71921
C         -2.45030       -2.77699        0.68269
C         -2.58868       -3.44712       -0.70720
C         -1.37010       -3.34902       -1.63466
C         -1.36587       -2.09244       -2.49474
C         -2.73745       -1.77072       -2.97641
C         -3.82688       -2.29034       -2.40603
O         -3.84827       -3.12087       -1.32537
H          0.99315        0.67820       -0.96025
H          0.71495       -0.95134       -0.33474
H          2.11472       -0.03883        0.20963
H          0.27380       -0.05107        1.93650
H          1.10275        2.64766        0.80532
H          0.39965        2.38040        2.41639
H          1.95225        1.65409        1.98840
H         -1.08292        3.00598        0.50420
H         -3.41280        3.35407       -0.11131
H         -4.94899        1.41910       -0.32657
H         -4.14579       -0.83749        0.07197
H         -0.88402       -1.63269        1.41676
H         -1.93695       -3.50340        1.32709
H         -3.42712       -2.61407        1.15196
H         -2.69843       -4.51662       -0.47881
H         -0.43187       -3.44428       -1.07647
H         -1.40553       -4.20874       -2.31901
H         -0.96927       -1.23291       -1.94940
H         -0.70385       -2.25011       -3.35404
H         -2.83928       -1.08202       -3.80903
H         -4.83222       -2.07497       -2.74546

--Link1--
%chk=JID_7210.chk
%mem=8GB
%nprocshared=4
# B3LYP/6-311++G(d,p) empiricaldispersion=gd3bj scf=xqc pop=npa geom=check

CID_55030399_JID_7210_Energie_neutraal

0 1

--Link1--
%chk=JID_7210.chk
%mem=8GB
%nprocshared=4
# B3LYP/6-311++G(d,p) empiricaldispersion=gd3bj scf=xqc pop=npa geom=check

CID_55030399_JID_7210_Energie_kation

1 2

--Link1--
%chk=JID_7210.chk
%mem=8GB
%nprocshared=4
# B3LYP/6-311++G(d,p) empiricaldispersion=gd3bj scf=xqc pop=npa geom=check

CID_55030399_JID_7210_Energie_anion

-1 2
