%chk=JID_6415.chk
%mem=8GB
%nprocshared=4
# opt freq B3LYP/6-31G(d) empiricaldispersion=gd3bj scf=xqc

CID_105290932_JID_6415_neutraal

0 1
C          0.93602       -0.01894       -0.07448
C          0.35606       -1.15529       -0.91309
C          0.74356       -2.54397       -0.37195
C          0.49320       -2.80477        1.12274
C         -0.97028       -2.70395        1.61393
C         -1.95362       -3.63593        0.86273
C         -1.67413       -5.14720        0.92847
C         -2.19363       -5.84723        2.18169
S         -3.78303       -6.64308        1.97862
O         -3.70140       -7.55290        0.85181
O         -4.19054       -7.13095        3.28404
C         -4.90684       -5.33978        1.54046
N         -0.98304       -2.97848        3.07337
N         -2.10414       -2.29789        3.69312
O         -1.06971       -1.07965       -0.97903
C         -1.55327       -0.01313       -1.78461
H          0.41667        0.07940        0.88409
H          0.82066        0.94047       -0.58925
H          2.00466       -0.16732        0.10959
H          0.75591       -1.08748       -1.93323
H          0.22969       -3.31432       -0.95912
H          1.81737       -2.68808       -0.55051
H          0.89610       -3.79762        1.36075
H          1.11205       -2.10407        1.69924
H         -1.29205       -1.66695        1.45590
H         -2.97279       -3.42973        1.20433
H         -1.95191       -3.35473       -0.19639
H         -2.10921       -5.61297        0.03629
H         -0.59620       -5.32099        0.85130
H         -1.50904       -6.66056        2.44995
H         -2.27890       -5.18963        3.04747
H         -4.85385       -4.55706        2.29913
H         -4.64605       -4.95542        0.55365
H         -5.91504       -5.75933        1.51340
H         -0.10702       -2.62044        3.47274
H         -2.11585       -2.46451        4.70462
H         -3.00072       -2.65742        3.35831
H         -2.63829       -0.11825       -1.87084
H         -1.34183        0.95317       -1.31960
H         -1.12068       -0.05579       -2.78866

--Link1--
%chk=JID_6415.chk
%mem=8GB
%nprocshared=4
# B3LYP/6-311++G(d,p) empiricaldispersion=gd3bj scf=xqc pop=npa geom=check

CID_105290932_JID_6415_Energie_neutraal

0 1

--Link1--
%chk=JID_6415.chk
%mem=8GB
%nprocshared=4
# B3LYP/6-311++G(d,p) empiricaldispersion=gd3bj scf=xqc pop=npa geom=check

CID_105290932_JID_6415_Energie_kation

1 2

--Link1--
%chk=JID_6415.chk
%mem=8GB
%nprocshared=4
# B3LYP/6-311++G(d,p) empiricaldispersion=gd3bj scf=xqc pop=npa geom=check

CID_105290932_JID_6415_Energie_anion

-1 2
