%chk=JID_7355.chk
%mem=8GB
%nprocshared=4
# opt freq B3LYP/6-31G(d) empiricaldispersion=gd3bj scf=xqc

CID_84140167_JID_7355_neutraal

0 1
C          2.19400       -0.06300        0.00100
C          0.84223       -0.08350        0.59135
C          0.15566       -0.98711        1.36710
C         -1.11451       -0.40697        1.61733
C         -1.13878        0.82151        0.98087
O          0.06707        1.00603        0.34965
C         -2.25167        1.83220        0.94223
N         -2.10023        2.95180        0.22360
N         -3.24603        3.61304        0.38615
C         -4.13875        2.99199        1.21507
C         -3.52609        1.80174        1.59336
C         -4.07162        0.74946        2.48546
C         -5.44430        3.64099        1.51775
C         -5.64073        3.98172        2.99096
C         -7.14071        3.86256        3.16703
C         -7.48685        2.69432        2.26621
N         -6.58574        2.81074        1.11763
H          2.14321        0.15057       -1.07111
H          2.80700        0.70734        0.47867
H          2.69402       -1.02762        0.13189
H          0.52269       -1.94359        1.71165
H         -1.90606       -0.85482        2.19595
H         -3.35643        4.49720       -0.09904
H         -4.18692       -0.19257        1.94037
H         -3.40885        0.58913        3.34151
H         -5.05236        1.01341        2.88593
H         -5.52719        4.57351        0.94314
H         -5.13193        3.27524        3.65696
H         -5.28146        4.98673        3.23569
H         -7.42561        3.69036        4.20881
H         -7.63629        4.77668        2.81822
H         -7.30588        1.74830        2.78876
H         -8.53457        2.71418        1.95306
H         -6.27635        1.88887        0.81505

--Link1--
%chk=JID_7355.chk
%mem=8GB
%nprocshared=4
# B3LYP/6-311++G(d,p) empiricaldispersion=gd3bj scf=xqc pop=npa geom=check

CID_84140167_JID_7355_Energie_neutraal

0 1

--Link1--
%chk=JID_7355.chk
%mem=8GB
%nprocshared=4
# B3LYP/6-311++G(d,p) empiricaldispersion=gd3bj scf=xqc pop=npa geom=check

CID_84140167_JID_7355_Energie_kation

1 2

--Link1--
%chk=JID_7355.chk
%mem=8GB
%nprocshared=4
# B3LYP/6-311++G(d,p) empiricaldispersion=gd3bj scf=xqc pop=npa geom=check

CID_84140167_JID_7355_Energie_anion

-1 2
