%chk=JID_5276.chk
%mem=8GB
%nprocshared=4
# opt freq B3LYP/6-31G(d) empiricaldispersion=gd3bj scf=xqc

CID_85554456_JID_5276_neutraal

0 1
C          0.94473       -0.07979       -0.02404
C          0.79102       -0.94868        1.21584
C          1.15749       -0.23214        2.51898
C          0.39543        1.06831        2.79540
C         -1.13121        0.94223        2.81300
C         -1.70086        0.09471        3.95591
C         -1.55932        0.71170        5.35295
C         -2.37148        1.99434        5.58543
N         -3.82080        1.76606        5.58807
C         -4.42034        1.28560        6.83027
C         -4.81608        2.46648        7.66728
C         -6.05415        2.69940        8.12404
C         -4.54567        2.05261        4.43654
O         -4.02698        2.51308        3.41836
C         -6.02524        1.75955        4.44757
H          0.22614        0.74475       -0.03120
H          0.76970       -0.67744       -0.92447
H          1.95419        0.33867       -0.08676
H         -0.23403       -1.33184        1.26837
H          1.44097       -1.82598        1.11082
H          1.01462       -0.92751        3.35432
H          2.23025       -0.00095        2.50093
H          0.74565        1.48451        3.74675
H          0.67090        1.80872        2.03454
H         -1.55295        1.95111        2.84924
H         -1.47556        0.51880        1.86288
H         -2.76054       -0.09996        3.75427
H         -1.21721       -0.88885        3.95752
H         -1.86160       -0.04375        6.08844
H         -0.50347        0.92368        5.55452
H         -2.09725        2.42005        6.55797
H         -2.11089        2.75272        4.84084
H         -5.27931        0.64409        6.61542
H         -3.69070        0.67561        7.37294
H         -4.02917        3.17379        7.92001
H         -6.26617        3.57942        8.72444
H         -6.88175        2.03091        7.90820
H         -6.19961        0.69124        4.59784
H         -6.53080        2.34879        5.21424
H         -6.45230        2.03457        3.47772

--Link1--
%chk=JID_5276.chk
%mem=8GB
%nprocshared=4
# B3LYP/6-311++G(d,p) empiricaldispersion=gd3bj scf=xqc pop=npa geom=check

CID_85554456_JID_5276_Energie_neutraal

0 1

--Link1--
%chk=JID_5276.chk
%mem=8GB
%nprocshared=4
# B3LYP/6-311++G(d,p) empiricaldispersion=gd3bj scf=xqc pop=npa geom=check

CID_85554456_JID_5276_Energie_kation

1 2

--Link1--
%chk=JID_5276.chk
%mem=8GB
%nprocshared=4
# B3LYP/6-311++G(d,p) empiricaldispersion=gd3bj scf=xqc pop=npa geom=check

CID_85554456_JID_5276_Energie_anion

-1 2
