%chk=JID_10240.chk
%mem=8GB
%nprocshared=4
# opt freq B3LYP/6-31G(d) empiricaldispersion=gd3bj scf=xqc

CID_107390541_JID_10240_neutraal

0 1
C          1.02458       -0.05669        0.07863
C         -0.00362       -0.30669        1.17551
C         -0.51799        0.98475        1.81308
O         -1.24767        1.73877        0.84258
C         -0.60920        2.90992        0.47316
N         -0.06130        3.67171        1.43529
C          0.54749        4.77669        0.99319
N          0.65098        5.17968       -0.28257
C          0.05915        4.40578       -1.21439
C         -0.58192        3.20278       -0.88497
N         -1.29048        2.43834       -1.84590
N          0.13335        4.77054       -2.58935
C          1.30772        5.60373       -2.88050
C          1.41530        5.77980       -4.39420
C          0.13092        6.37347       -4.97245
C         -1.15143        5.61379       -4.55076
C         -1.13246        5.41074       -3.01025
C         -1.22737        4.26322       -5.28542
O         -2.23215        6.47067       -4.97704
C         -3.54876        6.05235       -4.64796
H          1.84383        0.57182        0.44158
H          0.57535        0.42339       -0.79346
H          1.45083       -1.00804       -0.25606
H         -0.84234       -0.86549        0.74424
H          0.44759       -0.93321        1.95313
H         -1.22087        0.73075        2.61447
H          0.31589        1.52290        2.27938
H          1.00837        5.41262        1.74168
H         -0.83987        2.53918       -2.75448
H         -1.40682        1.47482       -1.54334
H          1.23260        6.58804       -2.39942
H          2.22379        5.11650       -2.52293
H          1.62425        4.81261       -4.86626
H          2.26186        6.43480       -4.62929
H          0.20158        6.41832       -6.06671
H          0.04927        7.41933       -4.64498
H         -2.00064        4.80771       -2.71984
H         -1.25723        6.38190       -2.50981
H         -2.09077        3.67677       -4.95379
H         -1.34463        4.41534       -6.36411
H         -0.34003        3.64530       -5.11890
H         -3.78686        5.08455       -5.09513
H         -3.69591        6.02238       -3.56560
H         -4.24541        6.78928       -5.05791

--Link1--
%chk=JID_10240.chk
%mem=8GB
%nprocshared=4
# B3LYP/6-311++G(d,p) empiricaldispersion=gd3bj scf=xqc pop=npa geom=check

CID_107390541_JID_10240_Energie_neutraal

0 1

--Link1--
%chk=JID_10240.chk
%mem=8GB
%nprocshared=4
# B3LYP/6-311++G(d,p) empiricaldispersion=gd3bj scf=xqc pop=npa geom=check

CID_107390541_JID_10240_Energie_kation

1 2

--Link1--
%chk=JID_10240.chk
%mem=8GB
%nprocshared=4
# B3LYP/6-311++G(d,p) empiricaldispersion=gd3bj scf=xqc pop=npa geom=check

CID_107390541_JID_10240_Energie_anion

-1 2
