%chk=JID_1279.chk
%mem=8GB
%nprocshared=4
# opt freq B3LYP/6-31G(d) empiricaldispersion=gd3bj scf=xqc

CID_57207295_JID_1279_neutraal

0 1
C          1.05811       -0.05435        0.06057
C          0.45874       -1.42609        0.35060
C          0.84732       -1.99811        1.73541
C          2.28999       -1.77749        2.20387
C          2.51453       -2.32334        3.62970
C          1.53250       -3.41753        4.09436
C          0.85641       -4.13716        2.96554
C          0.57159       -3.48436        1.82784
C          0.18556       -4.16587        0.61827
C          0.34760       -3.57065       -0.56951
O          0.78296       -2.28297       -0.75747
H          0.84105        0.65552        0.86429
H          0.64834        0.34607       -0.87357
H          2.14194       -0.11597       -0.08400
H         -0.63484       -1.30143        0.33551
H          0.19662       -1.48249        2.45855
H          2.98526       -2.27448        1.51409
H          2.55358       -0.71411        2.19791
H          3.54191       -2.70398        3.69507
H          2.46337       -1.49267        4.34517
H          2.08123       -4.14029        4.70971
H          0.76296       -2.98121        4.74290
H          0.70260       -5.20773        3.06376
H         -0.10951       -5.20938        0.66539
H          0.21509       -4.07822       -1.51609

--Link1--
%chk=JID_1279.chk
%mem=8GB
%nprocshared=4
# B3LYP/6-311++G(d,p) empiricaldispersion=gd3bj scf=xqc pop=npa geom=check

CID_57207295_JID_1279_Energie_neutraal

0 1

--Link1--
%chk=JID_1279.chk
%mem=8GB
%nprocshared=4
# B3LYP/6-311++G(d,p) empiricaldispersion=gd3bj scf=xqc pop=npa geom=check

CID_57207295_JID_1279_Energie_kation

1 2

--Link1--
%chk=JID_1279.chk
%mem=8GB
%nprocshared=4
# B3LYP/6-311++G(d,p) empiricaldispersion=gd3bj scf=xqc pop=npa geom=check

CID_57207295_JID_1279_Energie_anion

-1 2
