%chk=JID_10653.chk
%mem=8GB
%nprocshared=4
# opt freq B3LYP/6-31G(d) empiricaldispersion=gd3bj scf=xqc

CID_111064996_JID_10653_neutraal

0 1
C          1.07388       -0.06604        0.01340
C          1.13498       -1.39071        0.75963
C          1.35142       -1.25244        2.24120
C          1.45116       -0.12373        3.03017
C          1.66036       -0.43563        4.40447
C          1.69996       -1.79614        4.63713
S          1.51813       -2.67915        3.18230
C          1.90994       -2.49981        5.94830
N          0.89467       -3.50756        6.22904
C         -0.28812       -3.19656        6.60753
N         -0.78423       -1.93104        6.75807
N         -1.27668       -4.08264        6.94780
C         -1.25339       -5.49075        6.89846
C         -2.21962       -6.20577        7.62256
C         -2.26850       -7.60362        7.58235
C         -1.36344       -8.32351        6.80474
C         -0.41832       -7.62781        6.05600
C         -0.37356       -6.22601        6.09818
O         -1.51440       -9.68113        6.85527
C         -0.57226      -10.45635        6.12460
H          0.24567        0.55506        0.37092
H          0.92242       -0.24323       -1.05634
H          2.00316        0.50135        0.13205
H          0.19861       -1.93475        0.58390
H          1.94574       -1.99327        0.33139
H          1.38647        0.88707        2.64624
H          1.78035        0.30730        5.18384
H          2.88765       -2.99677        5.92534
H          1.96885       -1.77454        6.76990
H         -1.72827       -1.85514        6.39473
H         -0.20972       -1.22503        6.31519
H         -1.90443       -3.72134        7.65196
H         -2.94727       -5.68275        8.23744
H         -3.01971       -8.13331        8.16266
H          0.29922       -8.13528        5.42036
H          0.36552       -5.72186        5.48090
H         -0.65361      -10.26463        5.04965
H          0.44778      -10.28089        6.48245
H         -0.80642      -11.51201        6.29271

--Link1--
%chk=JID_10653.chk
%mem=8GB
%nprocshared=4
# B3LYP/6-311++G(d,p) empiricaldispersion=gd3bj scf=xqc pop=npa geom=check

CID_111064996_JID_10653_Energie_neutraal

0 1

--Link1--
%chk=JID_10653.chk
%mem=8GB
%nprocshared=4
# B3LYP/6-311++G(d,p) empiricaldispersion=gd3bj scf=xqc pop=npa geom=check

CID_111064996_JID_10653_Energie_kation

1 2

--Link1--
%chk=JID_10653.chk
%mem=8GB
%nprocshared=4
# B3LYP/6-311++G(d,p) empiricaldispersion=gd3bj scf=xqc pop=npa geom=check

CID_111064996_JID_10653_Energie_anion

-1 2
