%chk=JID_8801.chk
%mem=8GB
%nprocshared=4
# opt freq B3LYP/6-31G(d) empiricaldispersion=gd3bj scf=xqc

CID_80221847_JID_8801_neutraal

0 1
C          1.01628       -0.02539       -0.09534
C          1.11303        0.49744        1.33326
C          1.43999        1.99429        1.31382
C         -0.16824        0.26515        2.15021
C         -0.71748       -1.16882        2.21245
N          0.17277       -2.34206        2.46947
C         -0.61510       -3.54081        2.04258
C         -0.49542       -3.85446        0.53843
C          0.87351       -4.41591        0.11732
C          0.99442       -5.96258        0.02848
C          0.08801       -6.54099       -1.06974
C          2.45343       -6.32871       -0.29475
N          0.65807       -6.61815        1.29513
C          0.56339       -2.46052        3.90747
C          1.43840       -3.70022        4.23807
C          2.84250       -3.34074        3.77050
C          2.93846       -1.83279        3.95038
C          1.55202       -1.39040        4.41552
H          0.14908        0.39490       -0.61568
H          0.92971       -1.11495       -0.11426
H          1.91263        0.23612       -0.66822
H          1.94725       -0.01364        1.81884
H          0.65198        2.56624        0.81117
H          1.54463        2.38404        2.33187
H          2.38115        2.18159        0.78629
H         -0.04639        0.66169        3.16288
H         -0.96551        0.88705        1.71663
H         -1.54269       -1.17560        2.93910
H         -1.20489       -1.30947        1.23897
H         -0.33500       -4.44361        2.58057
H         -1.67634       -3.40398        2.29493
H         -1.29940       -4.54532        0.26566
H         -0.68825       -2.94788       -0.04571
H          1.10102       -4.01026       -0.87855
H          1.65267       -4.01883        0.77844
H          0.29754       -6.07265       -2.03803
H          0.24462       -7.62037       -1.18720
H         -0.97517       -6.39442       -0.85306
H          3.14016       -5.96016        0.47634
H          2.58860       -7.41484       -0.36641
H          2.76454       -5.89503       -1.25202
H         -0.32247       -6.46465        1.52462
H          1.20560       -6.20824        2.04937
H         -0.33961       -2.47238        4.53051
H          1.44970       -3.84283        5.32790
H          1.11758       -4.65512        3.82382
H          2.97973       -3.60279        2.71596
H          3.60785       -3.87129        4.34526
H          3.21567       -1.36220        3.00265
H          3.70260       -1.55953        4.68537
H          1.34626       -0.36473        4.13008
H          1.53352       -1.39306        5.51470

--Link1--
%chk=JID_8801.chk
%mem=8GB
%nprocshared=4
# B3LYP/6-311++G(d,p) empiricaldispersion=gd3bj scf=xqc pop=npa geom=check

CID_80221847_JID_8801_Energie_neutraal

0 1

--Link1--
%chk=JID_8801.chk
%mem=8GB
%nprocshared=4
# B3LYP/6-311++G(d,p) empiricaldispersion=gd3bj scf=xqc pop=npa geom=check

CID_80221847_JID_8801_Energie_kation

1 2

--Link1--
%chk=JID_8801.chk
%mem=8GB
%nprocshared=4
# B3LYP/6-311++G(d,p) empiricaldispersion=gd3bj scf=xqc pop=npa geom=check

CID_80221847_JID_8801_Energie_anion

-1 2
