%chk=JID_5977.chk
%mem=8GB
%nprocshared=4
# opt freq B3LYP/6-31G(d) empiricaldispersion=gd3bj scf=xqc

CID_83961136_JID_5977_neutraal

0 1
C          0.94942       -0.08536       -0.01249
C          0.12945        0.32599        1.20234
C         -0.04689        1.84200        1.31442
N         -0.86874        2.34048        0.21720
C         -1.24679        3.68740        0.19037
C         -2.28315        4.07202       -0.67077
C         -2.67264        5.41038       -0.79660
C         -2.00430        6.41645       -0.09053
C         -0.94870        6.04381        0.74981
C         -0.56533        4.70108        0.87010
C         -2.42778        7.85837       -0.19089
S         -2.45019        8.55014       -1.87629
C         -0.66817        8.73281       -2.28940
C          0.14435        9.42661       -1.20222
C         -0.03574        7.41377       -2.71925
H          0.45282        0.20010       -0.94500
H          1.08636       -1.17134       -0.02406
H          1.93976        0.38063        0.00714
H         -0.84909       -0.16710        1.16186
H          0.63531       -0.03705        2.10473
H         -0.53147        2.06587        2.27248
H          0.94027        2.31831        1.30657
H         -1.65444        1.73285       -0.00308
H         -2.80607        3.32280       -1.26030
H         -3.49608        5.65921       -1.46304
H         -0.40084        6.79564        1.31340
H          0.27963        4.47191        1.51156
H         -3.45235        7.92673        0.19466
H         -1.83002        8.50201        0.46171
H         -0.66169        9.39031       -3.16716
H          0.29147        8.79055       -0.32447
H          1.14118        9.67852       -1.58196
H         -0.32802       10.36176       -0.88315
H         -0.63146        6.91404       -3.49070
H          0.95763        7.59668       -3.14509
H          0.10200        6.72370       -1.88416

--Link1--
%chk=JID_5977.chk
%mem=8GB
%nprocshared=4
# B3LYP/6-311++G(d,p) empiricaldispersion=gd3bj scf=xqc pop=npa geom=check

CID_83961136_JID_5977_Energie_neutraal

0 1

--Link1--
%chk=JID_5977.chk
%mem=8GB
%nprocshared=4
# B3LYP/6-311++G(d,p) empiricaldispersion=gd3bj scf=xqc pop=npa geom=check

CID_83961136_JID_5977_Energie_kation

1 2

--Link1--
%chk=JID_5977.chk
%mem=8GB
%nprocshared=4
# B3LYP/6-311++G(d,p) empiricaldispersion=gd3bj scf=xqc pop=npa geom=check

CID_83961136_JID_5977_Energie_anion

-1 2
