%chk=JID_3163.chk
%mem=8GB
%nprocshared=4
# opt freq B3LYP/6-31G(d) empiricaldispersion=gd3bj scf=xqc

CID_65928215_JID_3163_neutraal

0 1
C          1.01829       -0.03495        0.09189
C          0.31834        0.32176        1.39533
C          1.05972        1.39596        2.17359
C          1.19329        2.82285        1.57122
N          0.79307        3.31740        2.87160
C          0.28908        2.04918        3.35793
C          0.86543        4.55803        3.41339
O          1.33864        5.52452        2.83109
O          0.35286        4.57098        4.67013
C          0.34433        5.79639        5.43307
C          1.75278        6.28957        5.74628
C         -0.54194        6.86480        4.80228
N          2.38076        0.94971        2.67620
H          1.14535        0.84634       -0.54472
H          0.42830       -0.77162       -0.46267
H          2.00758       -0.46670        0.27151
H         -0.69495        0.66781        1.15657
H          0.20286       -0.58187        2.00616
H          2.19324        3.13524        1.25721
H          0.46562        3.07809        0.79410
H         -0.80310        1.99521        3.30210
H          0.61753        1.78736        4.36796
H         -0.11809        5.51976        6.38834
H          2.26687        6.65883        4.85409
H          1.72538        7.10453        6.47660
H          2.36163        5.47524        6.15298
H         -1.52335        6.44887        4.55133
H         -0.68330        7.70611        5.48828
H         -0.11461        7.25929        3.87581
H          3.05348        0.73933        1.93964
H          2.84121        1.64317        3.26929

--Link1--
%chk=JID_3163.chk
%mem=8GB
%nprocshared=4
# B3LYP/6-311++G(d,p) empiricaldispersion=gd3bj scf=xqc pop=npa geom=check

CID_65928215_JID_3163_Energie_neutraal

0 1

--Link1--
%chk=JID_3163.chk
%mem=8GB
%nprocshared=4
# B3LYP/6-311++G(d,p) empiricaldispersion=gd3bj scf=xqc pop=npa geom=check

CID_65928215_JID_3163_Energie_kation

1 2

--Link1--
%chk=JID_3163.chk
%mem=8GB
%nprocshared=4
# B3LYP/6-311++G(d,p) empiricaldispersion=gd3bj scf=xqc pop=npa geom=check

CID_65928215_JID_3163_Energie_anion

-1 2
