%chk=JID_3051.chk
%mem=8GB
%nprocshared=4
# opt freq B3LYP/6-31G(d) empiricaldispersion=gd3bj scf=xqc

CID_81817990_JID_3051_neutraal

0 1
C          1.05885       -0.06795       -0.04381
C          0.41214       -0.66549        1.20928
C          1.28365       -0.34574        2.42953
N         -1.02257       -0.37823        1.32340
C         -1.81129       -1.36174        2.06839
C         -1.94500       -1.10643        3.54230
C         -3.10266       -0.84615        4.16673
C         -1.60243        0.97328        1.28947
C         -0.90486        2.00324        2.18393
C         -1.75484        1.55401       -0.13759
C         -2.49132        0.66348       -1.14559
N         -3.90645        0.49677       -0.80170
C         -4.59280       -0.29268       -1.81651
H          1.17954        1.01633        0.03225
H          0.47935       -0.30227       -0.94243
H          2.05924       -0.49140       -0.19250
H          0.50136       -1.75064        1.05939
H          1.38974        0.72649        2.60626
H          0.90649       -0.81144        3.34100
H          2.29596       -0.73949        2.27771
H         -2.80742       -1.42285        1.61039
H         -1.39533       -2.36848        1.93451
H         -1.04394       -1.17153        4.14244
H         -3.12841       -0.68674        5.24015
H         -4.04077       -0.77811        3.62566
H         -2.62880        0.91319        1.67645
H          0.07002        2.29946        1.78644
H         -1.51165        2.91374        2.25390
H         -0.77625        1.62922        3.20437
H         -2.29012        2.51185       -0.06896
H         -0.77543        1.80809       -0.55458
H         -2.41707        1.14578       -2.12828
H         -1.99789       -0.31158       -1.22550
H         -3.97118        0.01038        0.09178
H         -4.15607       -1.29225       -1.91147
H         -5.64446       -0.40957       -1.53758
H         -4.56430        0.20504       -2.79131

--Link1--
%chk=JID_3051.chk
%mem=8GB
%nprocshared=4
# B3LYP/6-311++G(d,p) empiricaldispersion=gd3bj scf=xqc pop=npa geom=check

CID_81817990_JID_3051_Energie_neutraal

0 1

--Link1--
%chk=JID_3051.chk
%mem=8GB
%nprocshared=4
# B3LYP/6-311++G(d,p) empiricaldispersion=gd3bj scf=xqc pop=npa geom=check

CID_81817990_JID_3051_Energie_kation

1 2

--Link1--
%chk=JID_3051.chk
%mem=8GB
%nprocshared=4
# B3LYP/6-311++G(d,p) empiricaldispersion=gd3bj scf=xqc pop=npa geom=check

CID_81817990_JID_3051_Energie_anion

-1 2
