%chk=JID_7338.chk
%mem=8GB
%nprocshared=4
# opt freq B3LYP/6-31G(d) empiricaldispersion=gd3bj scf=xqc

CID_113481916_JID_7338_neutraal

0 1
C          0.90395       -0.02061        0.01868
C          0.49876        0.22035       -1.43760
C         -0.59881       -0.76911       -1.84380
C         -1.29519       -0.04710       -2.97359
O         -1.32256        1.32925       -2.59344
C         -0.22756        1.55764       -1.68162
N          1.64439        0.00346       -2.34775
C          2.86405        0.69443       -2.32528
C          3.89863        0.20100       -3.16996
C          5.17916        0.75962       -3.13221
C          5.40131        1.91129       -2.37381
C          4.36297        2.48609       -1.63520
C          3.10235        1.87760       -1.62062
N          6.73273        2.52662       -2.35933
O          7.60470        2.03445       -3.08974
O          6.90774        3.50435       -1.61793
N          3.67990       -0.99500       -3.90154
H          1.37424       -1.00363        0.13705
H          0.03248        0.01214        0.68257
H          1.60986        0.72728        0.38837
H         -0.23465       -1.75625       -2.14574
H         -1.31160       -0.90951       -1.02110
H         -2.31597       -0.40494       -3.13387
H         -0.74258       -0.13533       -3.91528
H         -0.66319        1.95533       -0.75877
H          0.40113        2.33403       -2.12287
H          1.87626       -0.99041       -2.42987
H          5.98168        0.30681       -3.70845
H          4.51692        3.39363       -1.05455
H          2.33198        2.34405       -1.01713
H          4.32653       -1.10151       -4.67846
H          2.71567       -1.00983       -4.23524

--Link1--
%chk=JID_7338.chk
%mem=8GB
%nprocshared=4
# B3LYP/6-311++G(d,p) empiricaldispersion=gd3bj scf=xqc pop=npa geom=check

CID_113481916_JID_7338_Energie_neutraal

0 1

--Link1--
%chk=JID_7338.chk
%mem=8GB
%nprocshared=4
# B3LYP/6-311++G(d,p) empiricaldispersion=gd3bj scf=xqc pop=npa geom=check

CID_113481916_JID_7338_Energie_kation

1 2

--Link1--
%chk=JID_7338.chk
%mem=8GB
%nprocshared=4
# B3LYP/6-311++G(d,p) empiricaldispersion=gd3bj scf=xqc pop=npa geom=check

CID_113481916_JID_7338_Energie_anion

-1 2
