%chk=JID_7018.chk
%mem=8GB
%nprocshared=4
# opt freq B3LYP/6-31G(d) empiricaldispersion=gd3bj scf=xqc

CID_136251200_JID_7018_neutraal

0 1
C         -0.02900        0.88300        0.00000
C         -0.89885       -0.34144        0.06936
C          0.57879       -0.44704        0.34535
C          1.46887       -1.15515       -0.63181
C          2.94498       -0.77067       -0.48617
N          3.47478       -1.02788        0.85479
C          3.64230       -2.23418        1.23181
N          3.41727       -3.41094        0.58922
C          3.94812       -4.60090        1.22098
C          3.95747       -4.31866        2.73112
S          4.27885       -2.52674        2.84890
C          3.14031       -5.79485        0.76037
C          1.86554       -6.08381        1.27421
C          1.12642       -7.16532        0.78919
C          1.63864       -7.95980       -0.23270
C          2.88950       -7.67336       -0.77245
C          3.63435       -6.59913       -0.28120
H         -0.11592        1.61630        0.79415
H          0.17148        1.31144       -0.97506
H         -1.57726       -0.43566        0.90963
H         -1.28575       -0.74182       -0.86050
H          0.87820       -0.61757        1.37432
H          1.33225       -2.23296       -0.49839
H          1.15621       -0.93291       -1.65998
H          3.54807       -1.28496       -1.24428
H          3.05687        0.30199       -0.68428
H          3.34048       -3.40776       -0.41707
H          4.99051       -4.72915        0.89733
H          2.99776       -4.50750        3.21854
H          4.72714       -4.89680        3.25060
H          1.41560       -5.45865        2.04222
H          0.14256       -7.37762        1.20079
H          1.05707       -8.79397       -0.61654
H          3.28235       -8.28209       -1.58299
H          4.60264       -6.38695       -0.73075

--Link1--
%chk=JID_7018.chk
%mem=8GB
%nprocshared=4
# B3LYP/6-311++G(d,p) empiricaldispersion=gd3bj scf=xqc pop=npa geom=check

CID_136251200_JID_7018_Energie_neutraal

0 1

--Link1--
%chk=JID_7018.chk
%mem=8GB
%nprocshared=4
# B3LYP/6-311++G(d,p) empiricaldispersion=gd3bj scf=xqc pop=npa geom=check

CID_136251200_JID_7018_Energie_kation

1 2

--Link1--
%chk=JID_7018.chk
%mem=8GB
%nprocshared=4
# B3LYP/6-311++G(d,p) empiricaldispersion=gd3bj scf=xqc pop=npa geom=check

CID_136251200_JID_7018_Energie_anion

-1 2
