%chk=JID_4597.chk
%mem=8GB
%nprocshared=4
# opt freq B3LYP/6-31G(d) empiricaldispersion=gd3bj scf=xqc

CID_77025626_JID_4597_neutraal

0 1
C          0.90903        0.01990       -0.03645
S          0.73921       -1.73246        0.21217
O          1.75014       -2.12381        1.17754
O         -0.66100       -2.01262        0.46570
C          1.19203       -2.46654       -1.34593
C          0.20994       -2.19019       -2.47793
N          0.57918       -0.99468       -3.25266
C         -0.20446       -0.87317       -4.49058
C         -1.68521       -0.51713       -4.30071
C         -1.95134        0.74281       -3.47615
C         -1.43747        2.00552       -4.15328
N         -2.11149        2.69028       -5.03359
O         -3.36473        2.12631       -5.28680
N         -0.17810        2.44330       -3.82997
H          0.84707        0.50404        0.94099
H          0.09524        0.37685       -0.66626
H          1.88191        0.22254       -0.48706
H          2.21411       -2.15626       -1.58641
H          1.21746       -3.54566       -1.15137
H          0.24925       -3.05487       -3.15217
H         -0.81646       -2.11217       -2.10680
H          0.43717       -0.16246       -2.68966
H          0.27101       -0.10378       -5.10929
H         -0.12489       -1.79915       -5.07357
H         -2.13504       -0.40215       -5.29472
H         -2.20357       -1.35948       -3.82727
H         -3.02921        0.84041       -3.30391
H         -1.50353        0.66501       -2.48044
H         -3.76649        2.77656       -5.89238
H          0.53011        1.72710       -3.72888
H          0.12480        3.17933       -4.46239

--Link1--
%chk=JID_4597.chk
%mem=8GB
%nprocshared=4
# B3LYP/6-311++G(d,p) empiricaldispersion=gd3bj scf=xqc pop=npa geom=check

CID_77025626_JID_4597_Energie_neutraal

0 1

--Link1--
%chk=JID_4597.chk
%mem=8GB
%nprocshared=4
# B3LYP/6-311++G(d,p) empiricaldispersion=gd3bj scf=xqc pop=npa geom=check

CID_77025626_JID_4597_Energie_kation

1 2

--Link1--
%chk=JID_4597.chk
%mem=8GB
%nprocshared=4
# B3LYP/6-311++G(d,p) empiricaldispersion=gd3bj scf=xqc pop=npa geom=check

CID_77025626_JID_4597_Energie_anion

-1 2
