%chk=JID_6976.chk
%mem=8GB
%nprocshared=4
# opt freq B3LYP/6-31G(d) empiricaldispersion=gd3bj scf=xqc

CID_63100914_JID_6976_neutraal

0 1
C          1.07204       -0.03994        0.05670
C          0.85167        1.20650       -0.79172
C          1.64235        1.21408       -2.09590
C         -0.61685        1.61418       -0.97569
O         -0.93821        2.72769       -0.53665
N         -1.53459        0.77090       -1.59653
C         -1.27736       -0.58761       -2.10342
C         -1.83458       -1.70664       -1.21674
N         -3.28952       -1.86023       -1.30664
C         -3.98054       -0.69877       -0.74961
C         -4.00008        0.51336       -1.64986
C         -5.24414        0.99034       -2.10827
C         -5.34403        2.20084       -2.79366
C         -4.20442        2.96289       -3.01898
C         -2.96244        2.50030       -2.58338
C         -2.84186        1.26875       -1.91748
H          1.00237       -0.96625       -0.51764
H          0.34894       -0.09150        0.87723
H          2.07582       -0.02162        0.49629
H          1.27650        2.02845       -0.19395
H          1.42626        0.35773       -2.73745
H          1.42546        2.11872       -2.67446
H          2.71780        1.19909       -1.88756
H         -0.20983       -0.74919       -2.22204
H         -1.68668       -0.66425       -3.12055
H         -1.39230       -2.65141       -1.55415
H         -1.52679       -1.57097       -0.17326
H         -3.55794       -2.67718       -0.75896
H         -3.57944       -0.42244        0.23463
H         -5.01495       -1.00974       -0.55505
H         -6.15353        0.42678       -1.90995
H         -6.31320        2.55639       -3.13312
H         -4.27564        3.91385       -3.53963
H         -2.08112        3.10071       -2.79558

--Link1--
%chk=JID_6976.chk
%mem=8GB
%nprocshared=4
# B3LYP/6-311++G(d,p) empiricaldispersion=gd3bj scf=xqc pop=npa geom=check

CID_63100914_JID_6976_Energie_neutraal

0 1

--Link1--
%chk=JID_6976.chk
%mem=8GB
%nprocshared=4
# B3LYP/6-311++G(d,p) empiricaldispersion=gd3bj scf=xqc pop=npa geom=check

CID_63100914_JID_6976_Energie_kation

1 2

--Link1--
%chk=JID_6976.chk
%mem=8GB
%nprocshared=4
# B3LYP/6-311++G(d,p) empiricaldispersion=gd3bj scf=xqc pop=npa geom=check

CID_63100914_JID_6976_Energie_anion

-1 2
