%chk=JID_8222.chk
%mem=8GB
%nprocshared=4
# opt freq B3LYP/6-31G(d) empiricaldispersion=gd3bj scf=xqc

CID_112373704_JID_8222_neutraal

0 1
C          2.54100        1.06400        0.00800
C          1.32762        0.33900       -0.49491
C          0.33626        1.02443       -1.20728
C         -0.80966        0.36019       -1.66285
C         -0.97823       -0.99699       -1.36293
C         -0.00520       -1.69563       -0.63757
C          1.14505       -1.01854       -0.20764
C         -0.20380       -3.15176       -0.29463
C         -0.68129       -3.36269        1.13917
C         -2.17507       -3.16889        1.26417
O         -2.95868       -4.02751        0.85469
N         -2.68889       -2.04365        1.82862
C         -2.03221       -0.84419        2.34854
C         -2.76544        0.38610        1.80903
C         -2.05942       -0.82576        3.88725
C         -1.09796       -1.81293        4.53929
O          0.24586       -1.36160        4.42606
C         -1.87229        1.11412       -2.40687
H          2.80231        1.89604       -0.65427
H          2.35220        1.45670        1.01184
H          3.40735        0.39527        0.04574
H          0.45971        2.08561       -1.41617
H         -1.87932       -1.51311       -1.69115
H          1.90658       -1.55433        0.35612
H         -0.89654       -3.61271       -1.00996
H          0.75511       -3.66764       -0.43392
H         -0.48754       -4.40340        1.42994
H         -0.12767       -2.75011        1.85165
H         -3.70258       -2.06537        1.85760
H         -1.00207       -0.80410        1.99060
H         -3.79892        0.42375        2.17181
H         -2.26158        1.30809        2.11695
H         -2.80542        0.37079        0.71570
H         -1.80120        0.18235        4.23566
H         -3.07736       -1.04348        4.23431
H         -1.32062       -1.88119        5.60897
H         -1.17911       -2.82015        4.12130
H          0.50925       -1.40412        3.49262
H         -2.52103        1.64137       -1.70066
H         -1.42257        1.84198       -3.09033
H         -2.48719        0.43828       -3.01036

--Link1--
%chk=JID_8222.chk
%mem=8GB
%nprocshared=4
# B3LYP/6-311++G(d,p) empiricaldispersion=gd3bj scf=xqc pop=npa geom=check

CID_112373704_JID_8222_Energie_neutraal

0 1

--Link1--
%chk=JID_8222.chk
%mem=8GB
%nprocshared=4
# B3LYP/6-311++G(d,p) empiricaldispersion=gd3bj scf=xqc pop=npa geom=check

CID_112373704_JID_8222_Energie_kation

1 2

--Link1--
%chk=JID_8222.chk
%mem=8GB
%nprocshared=4
# B3LYP/6-311++G(d,p) empiricaldispersion=gd3bj scf=xqc pop=npa geom=check

CID_112373704_JID_8222_Energie_anion

-1 2
