%chk=JID_96.chk
%mem=8GB
%nprocshared=4
# opt=(cartesian,calcfc,maxcycle=500) freq B3LYP/6-31G(d) empiricaldispersion=gd3bj scf=xqc

CID_141220835_JID_96_neutraal

0 1
O       -2.3617 -0.7494 -1.0389
N       2.4346  0.6475  -0.4799
N       -2.9224 0.7052  0.6535
C       -0.6240 0.0249  0.4102
C       0.0737  -1.3121 0.1442
C       0.0423  1.2285  -0.2662
C       1.5005  -1.3497 0.6748
C       1.4655  1.4857  0.2222
C       -2.0420 -0.0623 -0.0719
C       2.4335  -0.6182 -0.2481
H       -0.6384 0.1917  1.4960
H       0.0732  -1.5394 -0.9301
H       -0.4983 -2.1126 0.6314
H       -0.5544 2.1247  -0.0505
H       0.0295  1.1092  -1.3575
H       1.8449  -2.3893 0.7182
H       1.5740  -0.9401 1.6870
H       1.7232  2.5267  -0.0061
H       1.5542  1.3865  1.3104
H       3.1690  -1.2386 -0.7874
H       -3.9087 0.7301  0.4171
H       -2.6297 1.2740  1.4416

--Link1--
%chk=JID_96.chk
%mem=8GB
%nprocshared=4
# B3LYP/6-311++G(d,p) empiricaldispersion=gd3bj scf=xqc pop=npa geom=check

CID_141220835_JID_96_Energie_neutraal

0 1

--Link1--
%chk=JID_96.chk
%mem=8GB
%nprocshared=4
# B3LYP/6-311++G(d,p) empiricaldispersion=gd3bj scf=xqc pop=npa geom=check

CID_141220835_JID_96_Energie_kation

1 2

--Link1--
%chk=JID_96.chk
%mem=8GB
%nprocshared=4
# B3LYP/6-311++G(d,p) empiricaldispersion=gd3bj scf=xqc pop=npa geom=check

CID_141220835_JID_96_Energie_anion

-1 2
