%chk=JID_3149.chk
%mem=8GB
%nprocshared=4
# opt freq B3LYP/6-31G(d) empiricaldispersion=gd3bj scf=xqc

CID_87181496_JID_3149_neutraal

0 1
C          0.99127        0.06292        0.07723
C          0.64993       -0.64273        1.38409
C          1.28124        0.05218        2.59013
C          0.46515        0.89894        3.25591
C          0.80136        1.71972        4.41817
O          0.25761        1.65585        5.50685
O          1.61628        2.74138        4.09900
N          2.62712       -0.24974        2.89472
C          3.28977       -1.45076        2.35394
N          3.14933        0.12763        4.10640
C          4.12978        0.98382        4.07396
C          4.72675        1.57149        2.81706
C          4.75727        1.38580        5.38436
H          0.61498        1.09153        0.07540
H          0.53237       -0.46403       -0.76550
H          2.07150        0.09772       -0.09481
H         -0.44357       -0.66944        1.48325
H          0.94624       -1.69584        1.33430
H         -0.57253        1.01507        2.96433
H          1.68473        3.22592        4.94540
H          3.28512       -1.44551        1.26008
H          4.34033       -1.49755        2.66348
H          2.79411       -2.35736        2.71708
H          5.21367        2.52336        3.04697
H          5.47603        0.88057        2.42130
H          3.96150        1.75588        2.05967
H          4.72627        2.47426        5.48298
H          4.22072        0.93729        6.22490
H          5.79795        1.05139        5.40252

--Link1--
%chk=JID_3149.chk
%mem=8GB
%nprocshared=4
# B3LYP/6-311++G(d,p) empiricaldispersion=gd3bj scf=xqc pop=npa geom=check

CID_87181496_JID_3149_Energie_neutraal

0 1

--Link1--
%chk=JID_3149.chk
%mem=8GB
%nprocshared=4
# B3LYP/6-311++G(d,p) empiricaldispersion=gd3bj scf=xqc pop=npa geom=check

CID_87181496_JID_3149_Energie_kation

1 2

--Link1--
%chk=JID_3149.chk
%mem=8GB
%nprocshared=4
# B3LYP/6-311++G(d,p) empiricaldispersion=gd3bj scf=xqc pop=npa geom=check

CID_87181496_JID_3149_Energie_anion

-1 2
