%chk=JID_7939.chk
%mem=8GB
%nprocshared=4
# opt freq B3LYP/6-31G(d) empiricaldispersion=gd3bj scf=xqc

CID_119334187_JID_7939_neutraal

0 1
C          0.98551       -0.03608        0.09213
C          2.07171        0.48585       -0.83246
C          1.56878        1.02505       -2.17837
C          0.83634       -0.01919       -3.03289
C         -0.65852       -0.14517       -2.65157
O         -1.36310        0.81135       -2.33565
N         -1.16779       -1.41819       -2.81134
C         -2.56543       -1.75294       -2.53082
C         -3.05291       -2.82080       -3.53243
C         -3.01473       -4.25457       -2.99566
C         -1.89694       -4.46700       -1.98775
C         -2.01638       -3.52571       -0.78777
C         -2.79053       -2.22323       -1.08227
C         -2.53314       -1.19780        0.02200
O         -2.08491       -1.49839        1.12613
N         -2.94882        0.08084       -0.19717
N          0.88904        0.38849       -4.45368
H          0.54086       -0.95604       -0.29595
H          0.19681        0.70837        0.23549
H          1.41016       -0.27008        1.07375
H          2.60752        1.29375       -0.31940
H          2.80435       -0.31080       -1.00870
H          0.93638        1.90430       -2.00320
H          2.45305        1.38578       -2.72135
H          1.33004       -0.99256       -2.93936
H         -0.51761       -2.17149       -3.00229
H         -3.15306       -0.84748       -2.72228
H         -4.09075       -2.60021       -3.81392
H         -2.47139       -2.76207       -4.46144
H         -2.90957       -4.95600       -3.83122
H         -3.97500       -4.48691       -2.51765
H         -0.92982       -4.31318       -2.48129
H         -1.89678       -5.50595       -1.63821
H         -1.00674       -3.30707       -0.41660
H         -2.52470       -4.05234        0.03085
H         -3.86252       -2.45419       -0.98544
H         -2.75176        0.49057       -1.11094
H         -2.70249        0.71224        0.55614
H          0.30241       -0.23776       -5.00515
H          0.45219        1.30980       -4.53636

--Link1--
%chk=JID_7939.chk
%mem=8GB
%nprocshared=4
# B3LYP/6-311++G(d,p) empiricaldispersion=gd3bj scf=xqc pop=npa geom=check

CID_119334187_JID_7939_Energie_neutraal

0 1

--Link1--
%chk=JID_7939.chk
%mem=8GB
%nprocshared=4
# B3LYP/6-311++G(d,p) empiricaldispersion=gd3bj scf=xqc pop=npa geom=check

CID_119334187_JID_7939_Energie_kation

1 2

--Link1--
%chk=JID_7939.chk
%mem=8GB
%nprocshared=4
# B3LYP/6-311++G(d,p) empiricaldispersion=gd3bj scf=xqc pop=npa geom=check

CID_119334187_JID_7939_Energie_anion

-1 2
