%chk=JID_7220.chk
%mem=8GB
%nprocshared=4
# opt freq B3LYP/6-31G(d) empiricaldispersion=gd3bj scf=xqc

CID_67913313_JID_7220_neutraal

0 1
C          1.06968       -0.00982       -0.07105
C          0.93210        0.17948       -1.57524
C          1.52773       -0.96810       -2.39536
C          0.80691       -2.27153       -2.19634
C          0.03488       -2.84708       -3.13132
C         -0.70192       -4.14790       -2.93061
C         -2.23684       -3.97605       -2.92595
C         -2.79864       -3.57822       -4.28474
C         -2.72369       -4.46116       -5.37698
C         -3.23789       -4.10292       -6.62474
C         -3.83158       -2.85606       -6.80250
C         -3.91152       -1.96513       -5.73365
C         -3.39786       -2.32850       -4.48780
O         -3.46995       -1.44963       -3.44438
C         -2.94113       -5.21055       -2.38701
O         -4.03223       -5.23743       -1.83640
O         -2.29218       -6.37224       -2.61341
H          0.48936       -0.86767        0.28153
H          0.70172        0.87769        0.45382
H          2.11656       -0.15995        0.21122
H         -0.12695        0.31193       -1.82803
H          1.44284        1.10845       -1.85611
H          1.50775       -0.68409       -3.45498
H          2.58354       -1.10628       -2.13341
H          0.93606       -2.75702       -1.23140
H         -0.09388       -2.36219       -4.09770
H         -0.38454       -4.84309       -3.71801
H         -0.38665       -4.60391       -1.98242
H         -2.45938       -3.19981       -2.18111
H         -2.26369       -5.44122       -5.26420
H         -3.17487       -4.79911       -7.45733
H         -4.23162       -2.57841       -7.77413
H         -4.37439       -0.99562       -5.88934
H         -3.93758       -0.65068       -3.73674
H         -2.90147       -7.04537       -2.24240

--Link1--
%chk=JID_7220.chk
%mem=8GB
%nprocshared=4
# B3LYP/6-311++G(d,p) empiricaldispersion=gd3bj scf=xqc pop=npa geom=check

CID_67913313_JID_7220_Energie_neutraal

0 1

--Link1--
%chk=JID_7220.chk
%mem=8GB
%nprocshared=4
# B3LYP/6-311++G(d,p) empiricaldispersion=gd3bj scf=xqc pop=npa geom=check

CID_67913313_JID_7220_Energie_kation

1 2

--Link1--
%chk=JID_7220.chk
%mem=8GB
%nprocshared=4
# B3LYP/6-311++G(d,p) empiricaldispersion=gd3bj scf=xqc pop=npa geom=check

CID_67913313_JID_7220_Energie_anion

-1 2
