%chk=JID_10423.chk
%mem=8GB
%nprocshared=4
# opt freq B3LYP/6-31G(d) empiricaldispersion=gd3bj scf=xqc

CID_63583809_JID_10423_neutraal

0 1
C          1.26600       -0.09700        0.26800
C          0.76843        0.93367        1.27646
C         -0.65603        1.28446        0.85344
C         -1.11279        0.10805       -0.02639
C          0.18104       -0.18376       -0.79815
N         -2.29273        0.43468       -0.84436
C         -3.49045        0.65858       -0.01211
C         -4.12269        1.95506       -0.38556
C         -4.96640        2.34866       -1.40028
C         -5.20093        3.73318       -1.20678
C         -4.47573        4.11927       -0.09190
O         -3.83295        3.01885        0.41430
C         -4.30162        5.37346        0.61817
O         -4.01544        5.43762        1.81590
N         -4.46126        6.58011       -0.06631
N         -4.36944        6.75306       -1.46372
C         -2.57677       -0.57503       -1.89628
C         -1.84814       -0.22539       -3.19588
O         -1.47332       -1.06049       -4.01136
N         -1.71496        1.11575       -3.43232
H          1.38768       -1.06838        0.76168
H          2.23477        0.17911       -0.15967
H          0.78112        0.50821        2.28614
H          1.40239        1.82637        1.28845
H         -0.64400        2.21691        0.27386
H         -1.29471        1.44673        1.72682
H         -1.33509       -0.75845        0.61361
H          0.36844        0.58070       -1.56168
H          0.17794       -1.16394       -1.28447
H         -4.22128       -0.15475       -0.11005
H         -3.25634        0.68453        1.05891
H         -5.36520        1.71372       -2.17939
H         -5.84181        4.36395       -1.80464
H         -4.24602        7.38519        0.52154
H         -3.73126        6.05841       -1.86090
H         -5.28880        6.59797       -1.88050
H         -2.30477       -1.58571       -1.57247
H         -3.63991       -0.58459       -2.16940
H         -1.77545        1.72165       -2.61860
H         -1.13021        1.39303       -4.20739

--Link1--
%chk=JID_10423.chk
%mem=8GB
%nprocshared=4
# B3LYP/6-311++G(d,p) empiricaldispersion=gd3bj scf=xqc pop=npa geom=check

CID_63583809_JID_10423_Energie_neutraal

0 1

--Link1--
%chk=JID_10423.chk
%mem=8GB
%nprocshared=4
# B3LYP/6-311++G(d,p) empiricaldispersion=gd3bj scf=xqc pop=npa geom=check

CID_63583809_JID_10423_Energie_kation

1 2

--Link1--
%chk=JID_10423.chk
%mem=8GB
%nprocshared=4
# B3LYP/6-311++G(d,p) empiricaldispersion=gd3bj scf=xqc pop=npa geom=check

CID_63583809_JID_10423_Energie_anion

-1 2
