%chk=JID_8061.chk
%mem=8GB
%nprocshared=4
# opt freq B3LYP/6-31G(d) empiricaldispersion=gd3bj scf=xqc

CID_114129256_JID_8061_neutraal

0 1
C          0.94646       -0.04218        0.07317
N          0.70943       -1.42106        0.44067
C          0.17374       -1.89314        1.61590
O          0.36588       -3.07421        1.90880
C         -0.56304       -0.99218        2.48678
C         -0.36370       -0.97560        3.86737
S         -1.37096        0.25930        4.51691
N         -2.11306        0.66484        3.10438
C         -1.61634       -0.07831        2.12547
N         -2.11486        0.02587        0.87438
N          0.50418       -1.76148        4.57789
C          0.35777       -2.00915        6.00478
C         -0.76700       -3.00342        6.30984
C         -0.61628       -4.38799        5.66522
C          0.65893       -5.15460        6.02944
C          0.86281       -5.46633        7.51342
S         -0.28215       -6.73465        8.15239
C         -1.50564       -5.67711        8.96280
H          0.92171        0.61929        0.94134
H          0.19744        0.25756       -0.66303
H          1.93541        0.01576       -0.38963
H          1.21312       -2.13520       -0.07028
H         -2.99832        0.52028        0.79222
H         -2.03035       -0.75058        0.22725
H          0.89030       -2.56329        4.07045
H          1.30931       -2.39660        6.38500
H          0.18665       -1.07449        6.55132
H         -0.84522       -3.11113        7.39718
H         -1.72533       -2.58312        5.98122
H         -1.49382       -4.99192        5.92213
H         -0.65004       -4.27919        4.57413
H          0.67849       -6.09053        5.45569
H          1.52652       -4.58310        5.67811
H          1.86978       -5.88090        7.63579
H          0.82502       -4.56383        8.13044
H         -1.02362       -5.01983        9.69105
H         -2.05375       -5.08112        8.23099
H         -2.22407       -6.30836        9.49297

--Link1--
%chk=JID_8061.chk
%mem=8GB
%nprocshared=4
# B3LYP/6-311++G(d,p) empiricaldispersion=gd3bj scf=xqc pop=npa geom=check

CID_114129256_JID_8061_Energie_neutraal

0 1

--Link1--
%chk=JID_8061.chk
%mem=8GB
%nprocshared=4
# B3LYP/6-311++G(d,p) empiricaldispersion=gd3bj scf=xqc pop=npa geom=check

CID_114129256_JID_8061_Energie_kation

1 2

--Link1--
%chk=JID_8061.chk
%mem=8GB
%nprocshared=4
# B3LYP/6-311++G(d,p) empiricaldispersion=gd3bj scf=xqc pop=npa geom=check

CID_114129256_JID_8061_Energie_anion

-1 2
