%chk=JID_10097.chk
%mem=8GB
%nprocshared=4
# opt freq B3LYP/6-31G(d) empiricaldispersion=gd3bj scf=xqc

CID_111458503_JID_10097_neutraal

0 1
C          0.95486        0.07113       -0.05388
C          0.35097       -0.30062        1.29032
C          0.24446        0.87786        2.18528
C         -0.76247        1.77598        2.45489
C         -0.24626        2.66669        3.42766
C          1.05602        2.27881        3.69054
O          1.34273        1.16996        2.93302
C          2.08755        2.75297        4.58990
O          2.93696        2.01345        5.09364
N          2.17824        4.08410        4.92477
C          1.59750        5.25267        4.26938
C          0.67236        6.10603        5.18814
C          1.39914        6.51485        6.47948
C          0.17492        7.31132        4.42984
C         -1.03793        7.47832        3.78508
N         -1.01649        8.72209        3.22727
N          0.12775        9.38683        3.45829
C          0.85157        8.53135        4.18131
C         -2.05735        9.34630        2.44752
O         -0.44450        5.29152        5.58497
H          0.34387        0.82016       -0.56930
H          1.02354       -0.81216       -0.69666
H          1.96232        0.48454        0.06502
H         -0.64319       -0.73529        1.13495
H          0.96517       -1.07357        1.76662
H         -1.75144        1.77754        2.01876
H         -0.77436        3.48178        3.89968
H          2.95896        4.24083        5.54905
H          2.44966        5.85842        3.93606
H          1.06683        4.94547        3.36450
H          2.33366        7.04735        6.27333
H          0.76636        7.16737        7.09360
H          1.62759        5.64165        7.10094
H         -1.88811        6.81850        3.67603
H          1.84303        8.83237        4.49659
H         -2.37201       10.25843        2.96062
H         -1.65455        9.57985        1.45882
H         -2.90254        8.66008        2.35359
H         -1.00961        5.84997        6.14652

--Link1--
%chk=JID_10097.chk
%mem=8GB
%nprocshared=4
# B3LYP/6-311++G(d,p) empiricaldispersion=gd3bj scf=xqc pop=npa geom=check

CID_111458503_JID_10097_Energie_neutraal

0 1

--Link1--
%chk=JID_10097.chk
%mem=8GB
%nprocshared=4
# B3LYP/6-311++G(d,p) empiricaldispersion=gd3bj scf=xqc pop=npa geom=check

CID_111458503_JID_10097_Energie_kation

1 2

--Link1--
%chk=JID_10097.chk
%mem=8GB
%nprocshared=4
# B3LYP/6-311++G(d,p) empiricaldispersion=gd3bj scf=xqc pop=npa geom=check

CID_111458503_JID_10097_Energie_anion

-1 2
