%chk=JID_2935.chk
%mem=8GB
%nprocshared=4
# opt freq B3LYP/6-31G(d) empiricaldispersion=gd3bj scf=xqc

CID_117271811_JID_2935_neutraal

0 1
C          0.93068        0.07173        0.00698
O          0.86079        1.48650        0.15235
C          1.51875        1.96796        1.32786
C          0.72700        1.76415        2.65165
C          1.34075        2.63036        3.75946
C          0.94907        1.93329        5.04825
C          0.80445        0.47107        4.66062
N          0.97176        0.39512        3.20080
C         -0.81139        1.94591        2.48823
C         -1.35556        3.35464        2.19995
C         -1.05657        3.96041        0.83485
O         -1.37691        3.06367       -0.21461
H          0.55302       -0.18302       -0.98722
H          0.29915       -0.42969        0.74355
H          1.96395       -0.27963        0.08402
H          2.52706        1.53663        1.38849
H          1.68213        3.03913        1.17154
H          2.43664        2.63938        3.68113
H          1.01106        3.67251        3.74165
H          1.70056        2.08320        5.82964
H         -0.00578        2.32483        5.41734
H          1.55815       -0.14844        5.15822
H         -0.17860        0.08561        4.95115
H          1.93968        0.13031        3.01348
H         -1.18951        1.25326        1.72595
H         -1.31061        1.62604        3.41346
H         -2.44883        3.27892        2.28094
H         -1.04811        4.05409        2.98412
H         -1.66780        4.85890        0.69851
H         -0.01514        4.27491        0.73958
H         -0.65421        2.40085       -0.25098

--Link1--
%chk=JID_2935.chk
%mem=8GB
%nprocshared=4
# B3LYP/6-311++G(d,p) empiricaldispersion=gd3bj scf=xqc pop=npa geom=check

CID_117271811_JID_2935_Energie_neutraal

0 1

--Link1--
%chk=JID_2935.chk
%mem=8GB
%nprocshared=4
# B3LYP/6-311++G(d,p) empiricaldispersion=gd3bj scf=xqc pop=npa geom=check

CID_117271811_JID_2935_Energie_kation

1 2

--Link1--
%chk=JID_2935.chk
%mem=8GB
%nprocshared=4
# B3LYP/6-311++G(d,p) empiricaldispersion=gd3bj scf=xqc pop=npa geom=check

CID_117271811_JID_2935_Energie_anion

-1 2
