%chk=JID_9086.chk
%mem=8GB
%nprocshared=4
# opt freq B3LYP/6-31G(d) empiricaldispersion=gd3bj scf=xqc

CID_43302901_JID_9086_neutraal

0 1
C          1.08610       -0.04990       -0.00987
C          0.50921        1.34562       -0.18756
C          0.85068        1.98882       -1.53559
C          0.35507        1.22864       -2.76907
C         -1.12102        1.09318       -2.82909
N         -1.91968        2.06658       -3.28561
O         -3.19767        1.51984       -3.14834
C         -3.02984        0.27232       -2.61655
N         -1.76834       -0.04578       -2.42553
C         -4.25327       -0.52582       -2.37257
S         -5.25622        0.10943       -0.98383
C         -4.12242       -0.16571        0.37584
C         -3.49817        0.89571        1.05488
C         -2.64145        0.60403        2.13401
C         -2.42874       -0.70666        2.56861
C         -3.00825       -1.74847        1.84830
C         -3.86928       -1.48268        0.78023
N         -1.47597       -0.97604        3.55775
C         -3.71482        2.33570        0.67492
H          0.63031       -0.76474       -0.70091
H          0.89526       -0.40751        1.00716
H          2.16846       -0.05142       -0.17207
H         -0.57623        1.31078       -0.05170
H          0.90066        1.98871        0.60997
H          0.43608        3.00509       -1.54529
H          1.93992        2.09824       -1.60938
H          0.69925        1.75878       -3.66629
H          0.81717        0.23594       -2.81324
H         -4.88133       -0.50863       -3.26945
H         -3.99250       -1.57273       -2.18726
H         -2.13084        1.41838        2.64356
H         -2.80266       -2.78102        2.11682
H         -4.33570       -2.32034        0.26789
H         -1.34928       -0.21659        4.21952
H         -1.60947       -1.86931        4.02115
H         -4.74273        2.63615        0.90112
H         -3.04416        3.00114        1.22941
H         -3.50906        2.49565       -0.38754

--Link1--
%chk=JID_9086.chk
%mem=8GB
%nprocshared=4
# B3LYP/6-311++G(d,p) empiricaldispersion=gd3bj scf=xqc pop=npa geom=check

CID_43302901_JID_9086_Energie_neutraal

0 1

--Link1--
%chk=JID_9086.chk
%mem=8GB
%nprocshared=4
# B3LYP/6-311++G(d,p) empiricaldispersion=gd3bj scf=xqc pop=npa geom=check

CID_43302901_JID_9086_Energie_kation

1 2

--Link1--
%chk=JID_9086.chk
%mem=8GB
%nprocshared=4
# B3LYP/6-311++G(d,p) empiricaldispersion=gd3bj scf=xqc pop=npa geom=check

CID_43302901_JID_9086_Energie_anion

-1 2
