%chk=JID_4814.chk
%mem=8GB
%nprocshared=4
# opt freq B3LYP/6-31G(d) empiricaldispersion=gd3bj scf=xqc

CID_117269703_JID_4814_neutraal

0 1
C          1.07186       -0.06952       -0.00184
C          0.66375        0.60368       -1.30068
C         -0.68041        0.13106       -1.82639
C         -1.07092        1.23558       -2.81466
C         -0.38165        2.48302       -2.24293
N          0.42546        2.03439       -1.10790
C         -2.59622        1.33454       -2.95984
C         -3.16138        2.15610       -4.12103
C         -2.54406        3.52627       -4.40709
C         -3.13090        3.96044       -5.75203
C         -2.91907        2.78793       -6.70495
S         -3.13259        1.31580       -5.71204
O         -1.93234        0.51494       -5.83333
O         -4.44831        0.76887       -5.96986
H          1.18138       -1.14938       -0.14693
H          0.32856        0.08823        0.78778
H          2.03000        0.32258        0.35590
H          1.44257        0.45165       -2.05895
H         -0.61296       -0.84570       -2.31682
H         -1.41622        0.05133       -1.01507
H         -0.61034        0.99785       -3.77990
H         -1.09040        3.24509       -1.90615
H          0.26598        2.93338       -3.00380
H          1.30537        2.54515       -1.05638
H         -3.00676        0.31877       -3.03727
H         -3.00091        1.74989       -2.02697
H         -4.23181        2.30653       -3.91997
H         -2.77926        4.24575       -3.61702
H         -1.45650        3.46491       -4.51003
H         -2.65663        4.87165       -6.12863
H         -4.20308        4.16257       -5.64009
H         -1.89694        2.78256       -7.09483
H         -3.63391        2.78664       -7.53023

--Link1--
%chk=JID_4814.chk
%mem=8GB
%nprocshared=4
# B3LYP/6-311++G(d,p) empiricaldispersion=gd3bj scf=xqc pop=npa geom=check

CID_117269703_JID_4814_Energie_neutraal

0 1

--Link1--
%chk=JID_4814.chk
%mem=8GB
%nprocshared=4
# B3LYP/6-311++G(d,p) empiricaldispersion=gd3bj scf=xqc pop=npa geom=check

CID_117269703_JID_4814_Energie_kation

1 2

--Link1--
%chk=JID_4814.chk
%mem=8GB
%nprocshared=4
# B3LYP/6-311++G(d,p) empiricaldispersion=gd3bj scf=xqc pop=npa geom=check

CID_117269703_JID_4814_Energie_anion

-1 2
