%chk=JID_4462.chk
%mem=8GB
%nprocshared=4
# opt freq B3LYP/6-31G(d) empiricaldispersion=gd3bj scf=xqc

CID_84733681_JID_4462_neutraal

0 1
C          0.70300        1.24700       -0.25500
C         -0.71493        1.30180        0.31695
C         -1.36051       -0.09975        0.38686
C         -0.37712       -1.05184        1.12296
N          0.95464       -1.10015        0.49702
C          1.56761        0.22967        0.48791
C         -1.71852       -0.61634       -1.05298
N         -2.62898       -1.79079       -1.02482
C         -1.91120       -3.02302       -1.43131
C         -2.85615       -4.23511       -1.45127
O         -3.95746       -4.01920       -2.34424
C         -4.68237       -2.84563       -1.95510
C         -3.77240       -1.60660       -1.94583
N         -2.61442        0.00085        1.17833
H          1.16316        2.23929       -0.18282
H          0.66674        0.99585       -1.32179
H         -0.66119        1.73579        1.32518
H         -1.32684        1.98741       -0.28240
H         -0.78370       -2.06790        1.16346
H         -0.26309       -0.73620        2.16960
H          1.54433       -1.73166        1.03973
H          2.54542        0.16448       -0.00157
H          1.74751        0.56736        1.51605
H         -2.21387        0.21118       -1.58084
H         -0.81297       -0.82611       -1.63546
H         -1.48642       -2.89300       -2.43573
H         -1.08720       -3.23433       -0.74342
H         -3.24096       -4.45639       -0.44844
H         -2.31580       -5.11980       -1.80299
H         -5.13756       -3.01171       -0.97109
H         -5.49355       -2.70389       -2.67631
H         -4.36597       -0.74015       -1.63225
H         -3.40774       -1.42147       -2.96474
H         -3.23374        0.66556        0.71540
H         -3.08698       -0.90167        1.04896

--Link1--
%chk=JID_4462.chk
%mem=8GB
%nprocshared=4
# B3LYP/6-311++G(d,p) empiricaldispersion=gd3bj scf=xqc pop=npa geom=check

CID_84733681_JID_4462_Energie_neutraal

0 1

--Link1--
%chk=JID_4462.chk
%mem=8GB
%nprocshared=4
# B3LYP/6-311++G(d,p) empiricaldispersion=gd3bj scf=xqc pop=npa geom=check

CID_84733681_JID_4462_Energie_kation

1 2

--Link1--
%chk=JID_4462.chk
%mem=8GB
%nprocshared=4
# B3LYP/6-311++G(d,p) empiricaldispersion=gd3bj scf=xqc pop=npa geom=check

CID_84733681_JID_4462_Energie_anion

-1 2
