%chk=JID_8904.chk
%mem=8GB
%nprocshared=4
# opt freq B3LYP/6-31G(d) empiricaldispersion=gd3bj scf=xqc

CID_62269823_JID_8904_neutraal

0 1
C         -2.47500       -0.07800       -0.00600
C         -1.01654       -0.07215       -0.35436
N         -0.34349        1.08527       -0.19087
C          0.96021        1.09037       -0.52178
N          1.62305        0.03796       -1.02742
C          0.91866       -1.09878       -1.16447
C         -0.41306       -1.21204       -0.84346
S          1.81005        2.63733       -0.34788
C          3.51090        2.05244       -0.08643
C          3.74153        1.57074        1.31545
C          3.78331        2.30973        2.48332
C          4.04713        1.50153        3.62854
C          4.20573        0.17365        3.30055
S          4.04528       -0.08885        1.62225
C          4.47594       -0.87183        4.23127
C          4.70195       -1.75970        5.00786
C          4.97817       -2.84809        5.94292
O          4.54740       -4.08451        5.39111
H         -2.77199        0.87558        0.44239
H         -3.07630       -0.23525       -0.90675
H         -2.69092       -0.87309        0.71453
H          1.47490       -1.94470       -1.55771
H         -0.95032       -2.14171       -0.97434
H          3.79580        1.31053       -0.83967
H          4.16790        2.91371       -0.25869
H          3.62464        3.38151        2.51644
H          4.11403        1.88164        4.64076
H          4.45068       -2.69653        6.88897
H          6.04834       -2.92186        6.15816
H          4.91274       -4.13129        4.49112

--Link1--
%chk=JID_8904.chk
%mem=8GB
%nprocshared=4
# B3LYP/6-311++G(d,p) empiricaldispersion=gd3bj scf=xqc pop=npa geom=check

CID_62269823_JID_8904_Energie_neutraal

0 1

--Link1--
%chk=JID_8904.chk
%mem=8GB
%nprocshared=4
# B3LYP/6-311++G(d,p) empiricaldispersion=gd3bj scf=xqc pop=npa geom=check

CID_62269823_JID_8904_Energie_kation

1 2

--Link1--
%chk=JID_8904.chk
%mem=8GB
%nprocshared=4
# B3LYP/6-311++G(d,p) empiricaldispersion=gd3bj scf=xqc pop=npa geom=check

CID_62269823_JID_8904_Energie_anion

-1 2
