%chk=JID_4772.chk
%mem=8GB
%nprocshared=4
# opt freq B3LYP/6-31G(d) empiricaldispersion=gd3bj scf=xqc

CID_79462230_JID_4772_neutraal

0 1
C          2.49600       -0.00700       -0.12600
C          0.99566       -0.24093        0.05976
C          0.30875        1.06019        0.51126
C         -1.18065        0.84988        0.77204
C         -1.88991        0.22617       -0.42490
C         -1.19340       -1.05341       -0.88843
C          0.30725       -0.85290       -1.18912
N          0.46751        0.00975       -2.37219
C          1.51724       -0.45647       -3.28973
C          0.96307       -1.36396       -4.39060
C          0.30003       -0.40743       -5.37870
C          1.11990        0.89096       -5.30301
C          2.06466        0.72025       -4.10475
N          0.26526        2.06533       -5.15857
H          2.99820       -0.92897       -0.43610
H          2.70208        0.77017       -0.86856
H          2.95174        0.31336        0.81745
H          0.89056       -0.96943        0.87663
H          0.78092        1.43161        1.42892
H          0.43968        1.84261       -0.24677
H         -1.65038        1.80825        1.02082
H         -1.30570        0.19918        1.64645
H         -1.92938        0.95134       -1.24631
H         -2.92827       -0.00007       -0.15656
H         -1.70833       -1.45204       -1.77152
H         -1.29717       -1.81569       -0.10486
H          0.72658       -1.84920       -1.38219
H         -0.41586        0.08123       -2.87318
H          2.33679       -0.94213       -2.75069
H          1.78901       -1.89000       -4.88573
H          0.26594       -2.12180       -4.01892
H         -0.74683       -0.24565       -5.09316
H          0.29157       -0.81936       -6.39345
H          1.71038        1.01536       -6.21757
H          2.18918        1.63174       -3.50794
H          3.06455        0.46106       -4.47837
H         -0.51214        2.02118       -5.81435
H         -0.13661        2.08157       -4.22040

--Link1--
%chk=JID_4772.chk
%mem=8GB
%nprocshared=4
# B3LYP/6-311++G(d,p) empiricaldispersion=gd3bj scf=xqc pop=npa geom=check

CID_79462230_JID_4772_Energie_neutraal

0 1

--Link1--
%chk=JID_4772.chk
%mem=8GB
%nprocshared=4
# B3LYP/6-311++G(d,p) empiricaldispersion=gd3bj scf=xqc pop=npa geom=check

CID_79462230_JID_4772_Energie_kation

1 2

--Link1--
%chk=JID_4772.chk
%mem=8GB
%nprocshared=4
# B3LYP/6-311++G(d,p) empiricaldispersion=gd3bj scf=xqc pop=npa geom=check

CID_79462230_JID_4772_Energie_anion

-1 2
