%chk=JID_10171.chk
%mem=8GB
%nprocshared=4
# opt freq B3LYP/6-31G(d) empiricaldispersion=gd3bj scf=xqc

CID_62176670_JID_10171_neutraal

0 1
C          1.08540       -0.02428       -0.04602
C          0.66296        1.24096       -0.78115
C         -0.34396        2.08540        0.00485
N          0.31813        2.74940        1.12419
C         -0.40916        3.55547        2.02157
C         -1.71611        3.98822        1.74033
C         -2.42720        4.80480        2.62731
C         -1.83944        5.23145        3.81145
C         -0.52851        4.86249        4.09735
C          0.19853        4.05532        3.20392
C          1.62401        3.78572        3.57763
O          1.98907        3.82676        4.74743
N          2.48415        3.53358        2.53501
C          3.90912        3.43487        2.73085
C          4.48089        2.69112        1.59104
C          4.72618        1.36280        1.34023
C          5.26072        1.34724        0.03305
N          5.33834        2.58283       -0.47559
O          4.84816        3.42524        0.50627
C          5.70679        0.18530       -0.76647
H          1.61845        0.20521        0.88100
H          1.75557       -0.61776       -0.67628
H          0.21659       -0.64290        0.20019
H          1.55247        1.83572       -1.02115
H          0.20445        0.94707       -1.73282
H         -0.75229        2.83948       -0.67799
H         -1.16686        1.45331        0.35887
H          0.92160        2.11392        1.65140
H         -2.22177        3.68909        0.82701
H         -3.44371        5.10693        2.38649
H         -2.39150        5.86331        4.50229
H         -0.06123        5.22142        5.01274
H          2.13454        3.71559        1.59511
H          4.31373        4.45044        2.79070
H          4.12068        2.92727        3.67772
H          4.53836        0.52988        2.00097
H          5.17635        0.14885       -1.72353
H          6.78108        0.24741       -0.96757
H          5.51441       -0.75416       -0.23855

--Link1--
%chk=JID_10171.chk
%mem=8GB
%nprocshared=4
# B3LYP/6-311++G(d,p) empiricaldispersion=gd3bj scf=xqc pop=npa geom=check

CID_62176670_JID_10171_Energie_neutraal

0 1

--Link1--
%chk=JID_10171.chk
%mem=8GB
%nprocshared=4
# B3LYP/6-311++G(d,p) empiricaldispersion=gd3bj scf=xqc pop=npa geom=check

CID_62176670_JID_10171_Energie_kation

1 2

--Link1--
%chk=JID_10171.chk
%mem=8GB
%nprocshared=4
# B3LYP/6-311++G(d,p) empiricaldispersion=gd3bj scf=xqc pop=npa geom=check

CID_62176670_JID_10171_Energie_anion

-1 2
