%chk=JID_4892.chk
%mem=8GB
%nprocshared=4
# opt freq B3LYP/6-31G(d) empiricaldispersion=gd3bj scf=xqc

CID_101537175_JID_4892_neutraal

0 1
C          1.08238        0.02259        0.05200
C          0.43239       -0.09498        1.39251
C         -0.16043        0.92922        2.02994
C         -0.81151        0.83283        3.38940
C         -0.16085        1.73537        4.41334
C         -0.76920        2.47731        5.35068
O         -2.24133        0.96364        3.31633
C         -2.78970        2.08946        2.80549
O         -2.19386        3.06484        2.37938
O         -4.13649        1.94514        2.86719
C         -5.01679        3.00137        2.41048
C         -4.83639        4.27585        3.24301
C         -4.84036        3.26636        0.91120
C         -6.43434        2.45830        2.64839
H          1.01769        1.03759       -0.35252
H          0.60056       -0.65834       -0.65621
H          2.13982       -0.24888        0.12596
H          0.45449       -1.08142        1.85088
H         -0.16805        1.91064        1.55894
H         -0.64999       -0.18748        3.76215
H          0.92798        1.74834        4.38980
H         -0.18699        3.08189        6.03964
H         -1.84806        2.50188        5.46206
H         -3.86731        4.75005        3.06095
H         -5.61073        5.01544        3.01229
H         -4.87865        4.04946        4.31439
H         -4.88707        2.33056        0.34296
H         -5.61418        3.94289        0.53254
H         -3.87081        3.72118        0.68714
H         -6.59134        1.52386        2.09696
H         -6.58816        2.22132        3.70770
H         -7.20232        3.17525        2.33950

--Link1--
%chk=JID_4892.chk
%mem=8GB
%nprocshared=4
# B3LYP/6-311++G(d,p) empiricaldispersion=gd3bj scf=xqc pop=npa geom=check

CID_101537175_JID_4892_Energie_neutraal

0 1

--Link1--
%chk=JID_4892.chk
%mem=8GB
%nprocshared=4
# B3LYP/6-311++G(d,p) empiricaldispersion=gd3bj scf=xqc pop=npa geom=check

CID_101537175_JID_4892_Energie_kation

1 2

--Link1--
%chk=JID_4892.chk
%mem=8GB
%nprocshared=4
# B3LYP/6-311++G(d,p) empiricaldispersion=gd3bj scf=xqc pop=npa geom=check

CID_101537175_JID_4892_Energie_anion

-1 2
