%chk=JID_7307.chk
%mem=8GB
%nprocshared=4
# opt freq B3LYP/6-31G(d) empiricaldispersion=gd3bj scf=xqc

CID_90256630_JID_7307_neutraal

0 1
C          1.01540       -0.08815       -0.04464
N          0.64435       -0.31566        1.34219
C          0.69607        0.85336        2.20895
C          0.20328       -1.57421        1.71323
O         -0.08004       -2.44101        0.88242
C          0.03098       -1.89627        3.13497
C         -0.95893       -2.66158        3.61274
N         -0.90389       -2.87220        4.97117
N          0.20577       -2.13547        5.42282
C          0.85408       -1.55272        4.32160
O          1.87823       -0.89021        4.28405
C          0.57930       -2.15400        6.78447
C         -0.12604       -2.93883        7.71167
C          0.23011       -2.95353        9.06434
C          1.29885       -2.18377        9.51212
C          2.01264       -1.40404        8.60735
C          1.65587       -1.39070        7.25432
H          0.25050        0.53788       -0.51361
H          1.10401       -1.02202       -0.60605
H          1.97934        0.42886       -0.07370
H          0.11157        0.71547        3.12001
H          1.74052        1.06343        2.45448
H          0.27572        1.71064        1.67323
H         -1.77027       -3.09805        3.04364
H         -1.77574       -2.61764        5.43870
H         -0.95109       -3.57136        7.39702
H         -0.32403       -3.57347        9.76455
H          1.57974       -2.19603       10.56198
H          2.85253       -0.80412        8.94920
H          2.24079       -0.76572        6.58536

--Link1--
%chk=JID_7307.chk
%mem=8GB
%nprocshared=4
# B3LYP/6-311++G(d,p) empiricaldispersion=gd3bj scf=xqc pop=npa geom=check

CID_90256630_JID_7307_Energie_neutraal

0 1

--Link1--
%chk=JID_7307.chk
%mem=8GB
%nprocshared=4
# B3LYP/6-311++G(d,p) empiricaldispersion=gd3bj scf=xqc pop=npa geom=check

CID_90256630_JID_7307_Energie_kation

1 2

--Link1--
%chk=JID_7307.chk
%mem=8GB
%nprocshared=4
# B3LYP/6-311++G(d,p) empiricaldispersion=gd3bj scf=xqc pop=npa geom=check

CID_90256630_JID_7307_Energie_anion

-1 2
