%chk=JID_8794.chk
%mem=8GB
%nprocshared=4
# opt freq B3LYP/6-31G(d) empiricaldispersion=gd3bj scf=xqc

CID_117367946_JID_8794_neutraal

0 1
C          0.33400        1.00600       -0.17300
C          0.88273       -0.35759        0.29381
C         -0.43597       -0.98653       -0.23306
C         -1.08138        0.40906       -0.03402
O         -1.04281       -2.12779        0.42386
C         -0.87031       -2.24756        1.77629
C          0.20350       -2.97790        2.26100
C          0.37406       -3.08615        3.63389
C         -0.54097       -2.48026        4.50687
C         -1.67516       -1.77466        4.04935
C         -1.80899       -1.69004        2.64684
C         -2.69335       -1.10753        5.01600
C         -3.10750        0.32374        4.68425
C         -4.10223       -0.78718        4.53288
C         -2.56635       -1.42908        6.50354
C         -2.80462       -2.87240        6.85826
O         -2.06336       -3.57137        7.53170
O         -3.98152       -3.35471        6.41805
H          0.60576        1.26094       -1.20378
H          0.55710        1.85645        0.47591
H          1.79501       -0.68790       -0.21042
H          1.04509       -0.39706        1.37547
H         -0.35314       -1.22247       -1.30420
H         -1.53364        0.58537        0.94652
H         -1.79112        0.71383       -0.80797
H          0.90616       -3.44388        1.57783
H          1.21994       -3.63826        4.03550
H         -0.34079       -2.58361        5.57075
H         -2.65200       -1.16479        2.20816
H         -3.25278        1.02713        5.49721
H         -2.72536        0.79262        3.78410
H         -4.41280       -1.08416        3.53891
H         -4.91885       -0.83904        5.24700
H         -1.56850       -1.14138        6.85568
H         -3.27306       -0.83635        7.09886
H         -3.98579       -4.28655        6.72032

--Link1--
%chk=JID_8794.chk
%mem=8GB
%nprocshared=4
# B3LYP/6-311++G(d,p) empiricaldispersion=gd3bj scf=xqc pop=npa geom=check

CID_117367946_JID_8794_Energie_neutraal

0 1

--Link1--
%chk=JID_8794.chk
%mem=8GB
%nprocshared=4
# B3LYP/6-311++G(d,p) empiricaldispersion=gd3bj scf=xqc pop=npa geom=check

CID_117367946_JID_8794_Energie_kation

1 2

--Link1--
%chk=JID_8794.chk
%mem=8GB
%nprocshared=4
# B3LYP/6-311++G(d,p) empiricaldispersion=gd3bj scf=xqc pop=npa geom=check

CID_117367946_JID_8794_Energie_anion

-1 2
