%chk=JID_9100.chk
%mem=8GB
%nprocshared=4
# opt freq B3LYP/6-31G(d) empiricaldispersion=gd3bj scf=xqc

CID_133490134_JID_9100_neutraal

0 1
C          1.04040        0.00242        0.09144
C          0.58898        1.17304        0.91089
C          0.10666        0.97673        2.20873
C         -0.30894        2.06151        2.96572
N         -0.22467        3.30833        2.46807
N          0.24282        3.52140        1.19523
C          0.64071        2.47986        0.43218
C          1.14055        2.81380       -0.93929
N         -0.79012        1.91241        4.27566
C         -2.00919        1.09851        4.35914
C         -2.40338        0.87142        5.83178
C         -2.77991        2.18785        6.52622
C         -3.59521       -0.11002        5.94195
N         -3.38879       -1.41538        5.28725
C         -2.35374       -2.21598        5.96324
C         -2.12243       -3.54716        5.24439
C         -3.41449       -4.34269        5.11301
C         -4.50333       -3.48233        4.48558
C         -4.66133       -2.15673        5.23081
H          0.46506       -0.05798       -0.83783
H          0.89809       -0.94226        0.62714
H          2.10543        0.09162       -0.14505
H          0.07319       -0.02007        2.63629
H          1.10128        3.89386       -1.11593
H          2.18024        2.49306       -1.05603
H          0.52248        2.32765       -1.70027
H         -0.97282        2.87115        4.57379
H         -2.82751        1.59518        3.82167
H         -1.84065        0.12742        3.88202
H         -1.54198        0.46066        6.37263
H         -3.59411        2.69654        5.99906
H         -3.10645        2.00307        7.55540
H         -1.92695        2.87165        6.57619
H         -3.85161       -0.25762        6.99987
H         -4.46261        0.37995        5.47833
H         -2.62868       -2.40365        7.00932
H         -1.39739       -1.68286        5.96763
H         -1.37912       -4.13821        5.79135
H         -1.70721       -3.35677        4.24634
H         -3.24539       -5.23868        4.50583
H         -3.73954       -4.68075        6.10454
H         -4.25502       -3.28575        3.43479
H         -5.45442       -4.02665        4.49253
H         -5.41458       -1.56171        4.70003
H         -5.04701       -2.34436        6.24162

--Link1--
%chk=JID_9100.chk
%mem=8GB
%nprocshared=4
# B3LYP/6-311++G(d,p) empiricaldispersion=gd3bj scf=xqc pop=npa geom=check

CID_133490134_JID_9100_Energie_neutraal

0 1

--Link1--
%chk=JID_9100.chk
%mem=8GB
%nprocshared=4
# B3LYP/6-311++G(d,p) empiricaldispersion=gd3bj scf=xqc pop=npa geom=check

CID_133490134_JID_9100_Energie_kation

1 2

--Link1--
%chk=JID_9100.chk
%mem=8GB
%nprocshared=4
# B3LYP/6-311++G(d,p) empiricaldispersion=gd3bj scf=xqc pop=npa geom=check

CID_133490134_JID_9100_Energie_anion

-1 2
