%chk=JID_10414.chk
%mem=8GB
%nprocshared=4
# opt freq B3LYP/6-31G(d) empiricaldispersion=gd3bj scf=xqc

CID_66966122_JID_10414_neutraal

0 1
C         -2.43700        0.65500       -0.39000
C         -2.42340       -0.65889        0.37838
C         -1.18562       -1.48241        0.02165
C          0.07271       -0.65926       -0.01208
C          0.07994        0.68569       -0.04162
C         -1.18833        1.49118       -0.09195
C          1.42121        1.34993       -0.00236
N          2.54732        0.69924        0.03177
N          2.48971       -0.65713        0.01829
C          1.35053       -1.41372        0.00602
O          1.38075       -2.63973        0.00672
C          1.52629        2.85969        0.05250
C          1.08467        3.61222       -1.17478
O          0.12676        4.38765       -1.13003
N          1.76045        3.49803       -2.34925
C          2.88826        2.65106       -2.68940
C          2.45599        1.36803       -3.39956
C          1.70119        1.58174       -4.71879
C          2.44892        2.37037       -5.79500
N          3.68472        1.71461       -6.19790
H         -2.48892        0.44524       -1.46632
H         -3.33423        1.23113       -0.13670
H         -2.43330       -0.45282        1.45629
H         -3.32775       -1.23617        0.15540
H         -1.09464       -2.29537        0.75181
H         -1.32719       -1.94522       -0.96304
H         -1.13172        2.25301       -0.87157
H         -1.31810        2.00483        0.86821
H          3.37347       -1.15474        0.04524
H          0.92699        3.20674        0.90336
H          2.55910        3.15278        0.27695
H          1.36625        4.07462       -3.08390
H          3.55194        3.24354       -3.32657
H          3.45260        2.40982       -1.78575
H          3.34143        0.74687       -3.57737
H          1.80210        0.78647       -2.74094
H          1.43172        0.59641       -5.12136
H          0.75125        2.09041       -4.51257
H          1.80118        2.45888       -6.67439
H          2.66216        3.38916       -5.45622
H          4.11770        2.24017       -6.95688
H          4.35713        1.71502       -5.43351

--Link1--
%chk=JID_10414.chk
%mem=8GB
%nprocshared=4
# B3LYP/6-311++G(d,p) empiricaldispersion=gd3bj scf=xqc pop=npa geom=check

CID_66966122_JID_10414_Energie_neutraal

0 1

--Link1--
%chk=JID_10414.chk
%mem=8GB
%nprocshared=4
# B3LYP/6-311++G(d,p) empiricaldispersion=gd3bj scf=xqc pop=npa geom=check

CID_66966122_JID_10414_Energie_kation

1 2

--Link1--
%chk=JID_10414.chk
%mem=8GB
%nprocshared=4
# B3LYP/6-311++G(d,p) empiricaldispersion=gd3bj scf=xqc pop=npa geom=check

CID_66966122_JID_10414_Energie_anion

-1 2
