%chk=JID_10063.chk
%mem=8GB
%nprocshared=4
# opt freq B3LYP/6-31G(d) empiricaldispersion=gd3bj scf=xqc

CID_21178576_JID_10063_neutraal

0 1
C         -2.52900       -1.05400        0.01900
N         -1.23915       -0.45879       -0.33197
C         -1.08966        0.92937       -0.31361
C          0.10201        1.45774       -0.67738
C          1.18025        0.56756       -1.15212
O          2.12487        1.01852       -1.79866
N          1.03476       -0.77011       -0.87028
C         -0.19086       -1.34339       -0.59088
O         -0.34541       -2.56680       -0.60280
C          2.13738       -1.65596       -1.18712
C          0.26961        2.93673       -0.70336
N          1.17055        3.72040       -0.23309
C          2.36233        3.21681        0.45137
C          2.12702        2.30268        1.63009
C          2.91747        1.15531        1.79549
C          2.72348        0.31108        2.88902
C          1.74605        0.61155        3.83515
C          0.96711        1.75866        3.69204
C          1.16094        2.60441        2.59890
N         -2.16620        1.70626        0.09695
H         -2.49878       -2.14674        0.03562
H         -2.82769       -0.71513        1.01645
H         -3.27562       -0.75170       -0.72235
H          2.12797       -2.52943       -0.52776
H          2.02992       -1.99130       -2.22352
H          3.09639       -1.14101       -1.07483
H         -0.56587        3.45714       -1.20403
H          3.03608        2.75695       -0.27944
H          2.91090        4.08729        0.83362
H          3.69061        0.91394        1.06839
H          3.33973       -0.57637        3.00642
H          1.59731       -0.04346        4.68944
H          0.21152        1.99860        4.43525
H          0.55517        3.50276        2.50106
H         -3.06754        1.36833       -0.22380
H         -2.08260        2.71227       -0.00153

--Link1--
%chk=JID_10063.chk
%mem=8GB
%nprocshared=4
# B3LYP/6-311++G(d,p) empiricaldispersion=gd3bj scf=xqc pop=npa geom=check

CID_21178576_JID_10063_Energie_neutraal

0 1

--Link1--
%chk=JID_10063.chk
%mem=8GB
%nprocshared=4
# B3LYP/6-311++G(d,p) empiricaldispersion=gd3bj scf=xqc pop=npa geom=check

CID_21178576_JID_10063_Energie_kation

1 2

--Link1--
%chk=JID_10063.chk
%mem=8GB
%nprocshared=4
# B3LYP/6-311++G(d,p) empiricaldispersion=gd3bj scf=xqc pop=npa geom=check

CID_21178576_JID_10063_Energie_anion

-1 2
