%chk=JID_8722.chk
%mem=8GB
%nprocshared=4
# opt freq B3LYP/6-31G(d) empiricaldispersion=gd3bj scf=xqc

CID_65903891_JID_8722_neutraal

0 1
C          2.49200        0.00400       -0.01400
C          0.99743       -0.00256        0.15533
C          0.33754       -1.23649        0.28864
C         -1.04869       -1.29705        0.43152
C         -1.79704       -0.12623        0.43964
C         -1.15823        1.10625        0.30884
C          0.24067        1.18896        0.17433
C          0.86591        2.55974        0.00701
N          0.69501        3.03341       -1.36319
C          1.32590        4.32401       -1.62795
C          2.87738        4.34659       -1.61589
C          3.50806        3.28827       -2.54442
C          3.29883        3.59904       -4.02280
C          3.84087        4.97783       -4.37889
C          3.27866        6.07152       -3.47427
C          3.46359        5.74302       -1.98239
C          2.94069        6.89940       -1.11952
O          3.18201        6.65480        0.25874
H          2.90347       -1.01094        0.00985
H          2.76235        0.44235       -0.97796
H          2.96793        0.56437        0.79659
H          0.90267       -2.16596        0.27647
H         -1.54306       -2.25997        0.52883
H         -2.87816       -0.16961        0.53958
H         -1.75667        2.01515        0.29773
H          0.38246        3.25213        0.70804
H          1.92040        2.52660        0.29357
H          1.02805        2.32226       -2.01115
H          0.95965        4.65971       -2.60366
H          0.93445        5.04863       -0.90522
H          3.20778        4.11228       -0.59580
H          4.58687        3.24361       -2.34337
H          3.12645        2.28811       -2.32308
H          2.23347        3.54166       -4.27357
H          3.80545        2.84034       -4.63035
H          3.60733        5.20722       -5.42467
H          4.93473        4.96778       -4.29392
H          2.21671        6.22243       -3.70167
H          3.78276        7.01660       -3.71074
H          4.54505        5.67683       -1.79012
H          3.46789        7.82363       -1.38001
H          1.87248        7.08575       -1.26943
H          2.51622        6.02067        0.57283

--Link1--
%chk=JID_8722.chk
%mem=8GB
%nprocshared=4
# B3LYP/6-311++G(d,p) empiricaldispersion=gd3bj scf=xqc pop=npa geom=check

CID_65903891_JID_8722_Energie_neutraal

0 1

--Link1--
%chk=JID_8722.chk
%mem=8GB
%nprocshared=4
# B3LYP/6-311++G(d,p) empiricaldispersion=gd3bj scf=xqc pop=npa geom=check

CID_65903891_JID_8722_Energie_kation

1 2

--Link1--
%chk=JID_8722.chk
%mem=8GB
%nprocshared=4
# B3LYP/6-311++G(d,p) empiricaldispersion=gd3bj scf=xqc pop=npa geom=check

CID_65903891_JID_8722_Energie_anion

-1 2
