%chk=JID_10164.chk
%mem=8GB
%nprocshared=4
# opt freq B3LYP/6-31G(d) empiricaldispersion=gd3bj scf=xqc

CID_69448947_JID_10164_neutraal

0 1
C          1.09400       -1.21800       -0.04600
C         -0.05853       -1.18287        0.92873
C         -1.36129       -0.60259        0.43450
C         -1.27287       -2.08567        0.71813
C         -1.33387       -3.06697       -0.40560
O         -2.20065       -2.94006       -1.25525
N         -0.34523       -4.01596       -0.30399
C         -0.02836       -5.01504       -1.20894
C          1.07788       -5.85802       -1.13175
C          1.06025       -6.80774       -2.22533
C         -0.03012       -6.61076       -3.05453
S         -0.99482       -5.30786       -2.56941
C         -0.35871       -7.42186       -4.26807
O          0.35447       -8.67237       -4.20027
C          1.75089       -8.48963       -3.93468
C          1.96949       -7.97087       -2.50348
C          2.04070       -5.72612       -0.03665
O          1.77041       -5.18633        1.03407
N          3.31753       -6.13839       -0.28088
C          0.35193       -0.89506        2.34923
H          1.79115       -2.02107        0.21421
H          0.76483       -1.37084       -1.07910
H          1.64184       -0.27007       -0.01461
H         -1.95703        0.00299        1.10874
H         -1.44135       -0.29016       -0.60229
H         -1.81724       -2.42352        1.59534
H          0.26843       -3.95958        0.50732
H         -0.06758       -6.89561       -5.18384
H         -1.42648       -7.65573       -4.32010
H          2.24750       -9.45767       -4.05558
H          2.17587       -7.80399       -4.67871
H          1.72808       -8.76590       -1.78769
H          3.02387       -7.71481       -2.38858
H          3.65729       -6.19001       -1.22864
H          3.99186       -5.89028        0.43144
H          0.87135        0.06706        2.40905
H         -0.50909       -0.85318        3.02500
H          1.02781       -1.67547        2.71388

--Link1--
%chk=JID_10164.chk
%mem=8GB
%nprocshared=4
# B3LYP/6-311++G(d,p) empiricaldispersion=gd3bj scf=xqc pop=npa geom=check

CID_69448947_JID_10164_Energie_neutraal

0 1

--Link1--
%chk=JID_10164.chk
%mem=8GB
%nprocshared=4
# B3LYP/6-311++G(d,p) empiricaldispersion=gd3bj scf=xqc pop=npa geom=check

CID_69448947_JID_10164_Energie_kation

1 2

--Link1--
%chk=JID_10164.chk
%mem=8GB
%nprocshared=4
# B3LYP/6-311++G(d,p) empiricaldispersion=gd3bj scf=xqc pop=npa geom=check

CID_69448947_JID_10164_Energie_anion

-1 2
