%chk=JID_7953.chk
%mem=8GB
%nprocshared=4
# opt freq B3LYP/6-31G(d) empiricaldispersion=gd3bj scf=xqc

CID_65299751_JID_7953_neutraal

0 1
C          1.05138       -0.08574        0.00305
C          0.28903        1.21904        0.28659
C          0.72562        2.26085       -0.75925
C         -1.24043        1.02662        0.20744
C         -1.78488        0.11090        1.29520
O         -2.08852        0.61380        2.38146
N         -1.86429       -1.26493        1.07301
C         -1.77917       -1.88794       -0.24292
C         -2.25549       -2.10491        2.23846
C         -1.65181       -3.51874        2.27465
C         -2.48469       -4.57131        1.54814
N         -3.88072       -4.54154        1.97173
C         -4.48921       -3.23872        1.71392
C         -3.77432       -2.12848        2.47445
C          0.67376        1.72688        1.67236
O          1.40689        1.17100        2.47397
O          0.11981        2.91734        1.97409
H          0.79083       -0.49459       -0.97873
H          0.85346       -0.85127        0.76030
H          2.13494        0.08478        0.00916
H          0.52939        1.90525       -1.77703
H          0.19288        3.21013       -0.63220
H          1.79700        2.47851       -0.67753
H         -1.74387        1.99363        0.35328
H         -1.55819        0.71766       -0.78973
H         -1.01889       -2.67218       -0.22433
H         -2.75087       -2.31167       -0.50157
H         -1.50892       -1.19676       -1.03704
H         -1.82181       -1.59191        3.10848
H         -0.62391       -3.51677        1.89395
H         -1.58199       -3.82473        3.32817
H         -2.41861       -4.45488        0.46197
H         -2.07221       -5.56124        1.77436
H         -4.40330       -5.26431        1.47674
H         -5.53443       -3.27248        2.04167
H         -4.50974       -3.03047        0.63930
H         -3.94994       -2.28620        3.54758
H         -4.22920       -1.16261        2.22641
H          0.36544        3.05825        2.91277

--Link1--
%chk=JID_7953.chk
%mem=8GB
%nprocshared=4
# B3LYP/6-311++G(d,p) empiricaldispersion=gd3bj scf=xqc pop=npa geom=check

CID_65299751_JID_7953_Energie_neutraal

0 1

--Link1--
%chk=JID_7953.chk
%mem=8GB
%nprocshared=4
# B3LYP/6-311++G(d,p) empiricaldispersion=gd3bj scf=xqc pop=npa geom=check

CID_65299751_JID_7953_Energie_kation

1 2

--Link1--
%chk=JID_7953.chk
%mem=8GB
%nprocshared=4
# B3LYP/6-311++G(d,p) empiricaldispersion=gd3bj scf=xqc pop=npa geom=check

CID_65299751_JID_7953_Energie_anion

-1 2
