%chk=JID_7090.chk
%mem=8GB
%nprocshared=4
# opt freq B3LYP/6-31G(d) empiricaldispersion=gd3bj scf=xqc

CID_148213885_JID_7090_neutraal

0 1
C          0.93951        0.00476        0.07949
C         -0.34166       -0.19582       -0.74089
C         -0.29787        0.26968       -2.15020
C          0.85375       -0.68064       -2.71159
C          1.07915       -2.20722       -2.16457
C          0.93400       -2.83880       -0.67852
C         -0.37895       -3.49711       -0.03123
C         -1.08255       -2.84858        1.28874
C         -2.20399       -1.84993        0.92001
C         -2.88220       -0.67295        1.58915
C         -3.07148        0.57406        0.57891
C         -3.13945        0.54365       -1.02557
C         -2.02242       -0.01422       -2.02193
C         -1.47723       -1.38082       -1.63738
C         -2.33786       -2.62384       -1.32768
C         -1.41799       -3.82462       -1.10401
C         -3.15767       -2.44271       -0.08599
H          1.85805       -0.35089       -0.38871
H          0.84098       -0.44788        1.07090
H          1.10649        1.07746        0.24895
H         -0.89304        0.54367       -0.15663
H         -0.06054        1.32628       -2.31544
H          1.80796       -0.15262       -2.57657
H          0.72182       -0.74685       -3.79988
H          2.13984       -2.38020       -2.40989
H          0.57237       -2.88185       -2.86599
H          1.49052       -2.29426        0.08155
H          1.57972       -3.72854       -0.79109
H         -0.01100       -4.46389        0.34702
H         -1.52521       -3.66385        1.87436
H         -0.31587       -2.38202        1.91691
H         -1.50549       -1.21571        0.46685
H         -2.29561       -0.32930        2.44984
H         -3.86370       -0.96674        1.98086
H         -2.33281        1.33181        0.87199
H         -4.02191        1.03318        0.89039
H         -3.28648        1.59162       -1.32298
H         -4.08073        0.04850       -1.29518
H         -2.47348        0.00829       -3.02517
H         -1.11955       -1.77744       -2.60222
H         -3.00433       -2.84463       -2.17111
H         -2.01399       -4.68847       -0.78025
H         -0.94179       -4.14034       -2.03736
H         -3.57533       -3.38874        0.28082
H         -4.02849       -1.81543       -0.28975

--Link1--
%chk=JID_7090.chk
%mem=8GB
%nprocshared=4
# B3LYP/6-311++G(d,p) empiricaldispersion=gd3bj scf=xqc pop=npa geom=check

CID_148213885_JID_7090_Energie_neutraal

0 1

--Link1--
%chk=JID_7090.chk
%mem=8GB
%nprocshared=4
# B3LYP/6-311++G(d,p) empiricaldispersion=gd3bj scf=xqc pop=npa geom=check

CID_148213885_JID_7090_Energie_kation

1 2

--Link1--
%chk=JID_7090.chk
%mem=8GB
%nprocshared=4
# B3LYP/6-311++G(d,p) empiricaldispersion=gd3bj scf=xqc pop=npa geom=check

CID_148213885_JID_7090_Energie_anion

-1 2
