%chk=JID_10204.chk
%mem=8GB
%nprocshared=4
# opt freq B3LYP/6-31G(d) empiricaldispersion=gd3bj scf=xqc

CID_65850198_JID_10204_neutraal

0 1
C          1.26600       -0.09700        0.26800
C          0.88024        0.97813       -0.74741
C         -0.39580        1.60993       -0.18579
C         -1.11332        0.43018        0.48050
C          0.04292       -0.29996        1.17061
N         -1.72266       -0.48455       -0.48977
S         -3.37332       -0.67910       -0.60794
O         -3.98259        0.63228       -0.64158
O         -3.59446       -1.64505       -1.66101
C         -3.79088       -1.45588        0.93306
C         -4.36405       -0.69891        1.95871
C         -4.71480       -1.32140        3.15822
C         -4.51484       -2.69902        3.32613
C         -3.94079       -3.45060        2.29049
C         -3.58423       -2.83020        1.08905
C         -4.90839       -3.31081        4.62304
O         -5.00809       -2.64158        5.64314
N         -5.19556       -4.64711        4.62970
C         -1.17464        2.40533       -1.23081
N         -2.34725        3.04692       -0.64403
H          2.13069        0.21389        0.86433
H          1.53816       -1.02615       -0.24425
H          1.67849        1.71590       -0.87822
H          0.69496        0.51696       -1.72506
H         -0.09179        2.30696        0.61046
H         -1.84765        0.77022        1.21636
H         -0.15883       -1.36219        1.34586
H          0.23954        0.16273        2.14567
H         -1.15314       -1.02564       -1.13666
H         -4.53983        0.36817        1.83676
H         -5.15418       -0.73180        3.96185
H         -3.74608       -4.51266        2.41008
H         -3.14729       -3.41826        0.28449
H         -5.37402       -5.17122        3.78571
H         -5.57022       -5.01529        5.49537
H         -0.52472        3.18577       -1.64282
H         -1.48214        1.77204       -2.07018
H         -2.76852        3.66412       -1.33920
H         -3.06911        2.32574       -0.49706

--Link1--
%chk=JID_10204.chk
%mem=8GB
%nprocshared=4
# B3LYP/6-311++G(d,p) empiricaldispersion=gd3bj scf=xqc pop=npa geom=check

CID_65850198_JID_10204_Energie_neutraal

0 1

--Link1--
%chk=JID_10204.chk
%mem=8GB
%nprocshared=4
# B3LYP/6-311++G(d,p) empiricaldispersion=gd3bj scf=xqc pop=npa geom=check

CID_65850198_JID_10204_Energie_kation

1 2

--Link1--
%chk=JID_10204.chk
%mem=8GB
%nprocshared=4
# B3LYP/6-311++G(d,p) empiricaldispersion=gd3bj scf=xqc pop=npa geom=check

CID_65850198_JID_10204_Energie_anion

-1 2
