%chk=JID_9235.chk
%mem=8GB
%nprocshared=4
# opt freq B3LYP/6-31G(d) empiricaldispersion=gd3bj scf=xqc

CID_54160080_JID_9235_neutraal

0 1
C          1.07390        0.02384        0.06301
C          0.62781       -1.03471        1.90272
C          0.40265        3.24359       -2.47835
C          0.15249        3.92203       -1.15033
C          4.07240       -0.85066        1.62019
C          2.62184       -0.67932        1.30790
C          1.74638       -1.95512        0.36864
C         -0.02349       -1.77871        0.03861
C         -0.92501       -0.33185        0.65251
C         -0.04505        0.94151        1.59530
C          1.72507        0.76585        1.92891
C         -2.35347       -0.19047        0.38488
C         -3.27582       -1.07764        0.95287
C         -4.64329       -0.93853        0.70462
C         -5.10054        0.08235       -0.12616
C         -4.19219        0.96710       -0.70373
C         -2.82631        0.83439       -0.44376
C         -0.15474       -1.10760       -3.68319
O          0.09532       -2.49967       -3.59990
H          1.99828        0.66691       -0.05497
H          1.21987       -0.51489       -0.92074
H          0.37874        0.80306       -0.36825
H          0.48125       -0.49694        2.88841
H         -0.29416       -1.67998        2.02090
H          1.32614       -1.81429        2.33506
H         -0.16223        3.73775       -3.27433
H          0.09573        2.19436       -2.44056
H          1.46552        3.28216       -2.73475
H          0.44542        4.97513       -1.19568
H         -0.90770        3.87103       -0.88548
H          0.73002        3.43946       -0.35666
H          4.18803       -1.42660        2.54161
H          4.57247       -1.37436        0.80101
H          4.54874        0.12569        1.74241
H          2.27986       -2.82710       -0.00059
H         -0.54543       -2.53589       -0.54256
H         -0.58722        1.80521        1.97122
H          2.24579        1.52357        2.50826
H         -2.93250       -1.87710        1.60607
H         -5.34947       -1.62732        1.16060
H         -6.16396        0.18732       -0.32401
H         -4.54537        1.75956       -1.35802
H         -2.12773        1.52784       -0.90553
H         -0.95934       -0.84706       -2.99189
H         -0.45602       -0.85217       -4.70206
H          0.74962       -0.55708       -3.41291
H          0.82486       -2.69272       -4.21283

--Link1--
%chk=JID_9235.chk
%mem=8GB
%nprocshared=4
# B3LYP/6-311++G(d,p) empiricaldispersion=gd3bj scf=xqc pop=npa geom=check

CID_54160080_JID_9235_Energie_neutraal

0 1

--Link1--
%chk=JID_9235.chk
%mem=8GB
%nprocshared=4
# B3LYP/6-311++G(d,p) empiricaldispersion=gd3bj scf=xqc pop=npa geom=check

CID_54160080_JID_9235_Energie_kation

1 2

--Link1--
%chk=JID_9235.chk
%mem=8GB
%nprocshared=4
# B3LYP/6-311++G(d,p) empiricaldispersion=gd3bj scf=xqc pop=npa geom=check

CID_54160080_JID_9235_Energie_anion

-1 2
