%chk=JID_10470.chk
%mem=8GB
%nprocshared=4
# opt freq B3LYP/6-31G(d) empiricaldispersion=gd3bj scf=xqc

CID_21803053_JID_10470_neutraal

0 1
C          1.34400       -0.22500        0.03600
C          0.92647        1.06684       -0.27348
C         -0.42933        1.33867       -0.46297
C         -1.38664        0.31675       -0.34949
C         -0.94865       -0.97887       -0.02506
C          0.40761       -1.24686        0.16416
C         -2.87511        0.57599       -0.54829
C         -3.67394        0.92111        0.71002
N         -2.91390        1.82466        1.62618
O         -2.91104        3.03369        1.36837
O         -2.38893        1.30435        2.61865
N         -3.13898        1.40465       -1.73623
C         -3.49323        2.73034       -1.78897
C         -3.62354        3.09252       -3.11421
C         -3.35492        1.94760       -3.90349
C         -3.07831        0.90578       -3.02338
N         -2.78736       -0.37079       -3.35030
C         -2.74757       -0.58444       -4.68403
C         -2.99386        0.36613       -5.66468
C         -3.31346        1.66729       -5.27842
H          2.40057       -0.43371        0.18166
H          1.65753        1.86570       -0.36912
H         -0.72238        2.35868       -0.70533
H         -1.65881       -1.79787        0.06910
H          0.73429       -2.25445        0.40776
H         -3.31218       -0.38807       -0.85502
H         -4.63666        1.39838        0.49967
H         -3.87285        0.01304        1.29334
H         -3.61455        3.33753       -0.90379
H         -3.88075        4.08098       -3.47229
H         -2.49415       -1.60360       -4.96731
H         -2.93673        0.09923       -6.71427
H         -3.51410        2.43683       -6.01598

--Link1--
%chk=JID_10470.chk
%mem=8GB
%nprocshared=4
# B3LYP/6-311++G(d,p) empiricaldispersion=gd3bj scf=xqc pop=npa geom=check

CID_21803053_JID_10470_Energie_neutraal

0 1

--Link1--
%chk=JID_10470.chk
%mem=8GB
%nprocshared=4
# B3LYP/6-311++G(d,p) empiricaldispersion=gd3bj scf=xqc pop=npa geom=check

CID_21803053_JID_10470_Energie_kation

1 2

--Link1--
%chk=JID_10470.chk
%mem=8GB
%nprocshared=4
# B3LYP/6-311++G(d,p) empiricaldispersion=gd3bj scf=xqc pop=npa geom=check

CID_21803053_JID_10470_Energie_anion

-1 2
