%chk=JID_8698.chk
%mem=8GB
%nprocshared=4
# opt freq B3LYP/6-31G(d) empiricaldispersion=gd3bj scf=xqc

CID_114467701_JID_8698_neutraal

0 1
C          0.98906       -0.07896        0.06038
C          0.59684       -1.41336       -0.51012
C          0.35734       -2.47425        0.27808
C          0.50396       -1.50471       -2.01432
O         -0.33577       -0.48593       -2.54674
C         -1.73466       -0.71350       -2.36887
C         -2.37518       -1.36402       -3.60768
N         -2.38975       -2.82852       -3.52641
C         -3.18187       -3.44728       -4.60152
C         -2.38142       -3.84987       -5.81448
N         -1.95260       -5.07617       -6.03662
C         -1.31911       -5.16424       -7.26905
C         -1.23908       -3.95729       -7.94313
S         -2.01308       -2.71741       -7.05246
C         -0.82288       -6.51766       -7.76162
C         -1.59911       -6.92682       -9.02999
C          0.68110       -6.45569       -8.09016
C         -1.03366       -7.61758       -6.69959
H          1.10984       -0.11844        1.14821
H          0.22649        0.67420       -0.16151
H          1.94140        0.25167       -0.36662
H          0.07766       -3.43890       -0.13634
H          0.43129       -2.40821        1.35955
H          1.50417       -1.34385       -2.43248
H          0.17730       -2.49160       -2.35493
H         -1.95678       -1.26631       -1.44864
H         -2.18059        0.28061       -2.24808
H         -3.41260       -1.01197       -3.65685
H         -1.85290       -1.03129       -4.51002
H         -1.44114       -3.19945       -3.56797
H         -3.61597       -4.36452       -4.18405
H         -4.03858       -2.82560       -4.88946
H         -0.79530       -3.75495       -8.90723
H         -1.44377       -6.21173       -9.84621
H         -1.28204       -7.91203       -9.39050
H         -2.67749       -6.97217       -8.83612
H          1.26590       -6.15586       -7.21274
H          1.05406       -7.43099       -8.42401
H          0.89200       -5.73447       -8.88803
H         -0.49300       -7.38755       -5.77399
H         -2.09421       -7.73029       -6.44475
H         -0.67713       -8.59011       -7.05848

--Link1--
%chk=JID_8698.chk
%mem=8GB
%nprocshared=4
# B3LYP/6-311++G(d,p) empiricaldispersion=gd3bj scf=xqc pop=npa geom=check

CID_114467701_JID_8698_Energie_neutraal

0 1

--Link1--
%chk=JID_8698.chk
%mem=8GB
%nprocshared=4
# B3LYP/6-311++G(d,p) empiricaldispersion=gd3bj scf=xqc pop=npa geom=check

CID_114467701_JID_8698_Energie_kation

1 2

--Link1--
%chk=JID_8698.chk
%mem=8GB
%nprocshared=4
# B3LYP/6-311++G(d,p) empiricaldispersion=gd3bj scf=xqc pop=npa geom=check

CID_114467701_JID_8698_Energie_anion

-1 2
