%chk=JID_3142.chk
%mem=8GB
%nprocshared=4
# opt freq B3LYP/6-31G(d) empiricaldispersion=gd3bj scf=xqc

CID_149851071_JID_3142_neutraal

0 1
C         -1.43100        0.32400       -0.23100
C         -0.88672       -1.02724        0.23676
C          0.57382       -1.25201       -0.17131
C          1.45163       -0.07159        0.26470
C          0.90208        1.28250       -0.18627
C         -0.55544        1.49098        0.25362
C         -1.07045        2.84199       -0.26173
C         -2.32418        3.27088        0.45798
O         -2.37354        4.24827        1.19817
N          0.70227       -1.47708       -1.61368
N          0.28879       -2.63778       -2.23209
N          0.28845       -3.69775       -1.56604
N          0.28083       -4.66684       -0.96382
H         -2.45363        0.43533        0.14669
H         -1.49765        0.33383       -1.32608
H         -0.95988       -1.07481        1.33089
H         -1.52558       -1.82733       -0.15482
H          0.95758       -2.14626        0.33297
H          2.47146       -0.19472       -0.11960
H          1.52437       -0.07078        1.35998
H          0.97871        1.36765       -1.27734
H          1.53245        2.07649        0.23264
H         -0.58178        1.50220        1.35223
H         -0.31815        3.62314       -0.09970
H         -1.28474        2.80884       -1.33536
H         -3.22136        2.65550        0.27789
H          0.59173       -0.66956       -2.22474

--Link1--
%chk=JID_3142.chk
%mem=8GB
%nprocshared=4
# B3LYP/6-311++G(d,p) empiricaldispersion=gd3bj scf=xqc pop=npa geom=check

CID_149851071_JID_3142_Energie_neutraal

0 1

--Link1--
%chk=JID_3142.chk
%mem=8GB
%nprocshared=4
# B3LYP/6-311++G(d,p) empiricaldispersion=gd3bj scf=xqc pop=npa geom=check

CID_149851071_JID_3142_Energie_kation

1 2

--Link1--
%chk=JID_3142.chk
%mem=8GB
%nprocshared=4
# B3LYP/6-311++G(d,p) empiricaldispersion=gd3bj scf=xqc pop=npa geom=check

CID_149851071_JID_3142_Energie_anion

-1 2
