%chk=JID_3931.chk
%mem=8GB
%nprocshared=4
# opt freq B3LYP/6-31G(d) empiricaldispersion=gd3bj scf=xqc

CID_139304724_JID_3931_neutraal

0 1
C          1.05082       -0.01332       -0.08509
C          0.64078        1.42577        0.19117
C          0.93153        2.31120       -0.98811
C          0.06743        3.07350       -1.69879
C          0.63861        3.90916       -2.82710
C         -1.40082        3.24355       -1.45750
C         -2.34777        3.27445       -2.65000
S         -2.34412        1.79477       -1.79395
C         -3.60897        4.07012       -2.65582
N         -1.81337        3.85466       -0.17668
C         -1.18507        5.13094        0.17570
C         -1.72268        6.27741       -0.67867
C         -1.47222        5.41601        1.65314
H          0.49331       -0.42776       -0.93182
H          0.84970       -0.63805        0.79112
H          2.11993       -0.08588       -0.31187
H         -0.41205        1.43986        0.47919
H          1.20609        1.80125        1.05201
H          1.98279        2.31890       -1.27649
H          0.36240        3.48336       -3.79677
H          0.26554        4.93634       -2.77731
H          1.73213        3.96559       -2.79197
H         -1.93646        3.21801       -3.64961
H         -3.40079        5.09522       -2.97843
H         -4.32303        3.64227       -3.36823
H         -4.10068        4.11825       -1.67833
H         -1.65515        3.17256        0.56141
H         -0.09643        5.07677        0.06412
H         -2.81001        6.37358       -0.58291
H         -1.27671        7.22915       -0.36935
H         -1.48593        6.13760       -1.73715
H         -1.06321        4.62592        2.29310
H         -1.01102        6.36064        1.96145
H         -2.54833        5.48774        1.84833

--Link1--
%chk=JID_3931.chk
%mem=8GB
%nprocshared=4
# B3LYP/6-311++G(d,p) empiricaldispersion=gd3bj scf=xqc pop=npa geom=check

CID_139304724_JID_3931_Energie_neutraal

0 1

--Link1--
%chk=JID_3931.chk
%mem=8GB
%nprocshared=4
# B3LYP/6-311++G(d,p) empiricaldispersion=gd3bj scf=xqc pop=npa geom=check

CID_139304724_JID_3931_Energie_kation

1 2

--Link1--
%chk=JID_3931.chk
%mem=8GB
%nprocshared=4
# B3LYP/6-311++G(d,p) empiricaldispersion=gd3bj scf=xqc pop=npa geom=check

CID_139304724_JID_3931_Energie_anion

-1 2
