%chk=JID_1959.chk
%mem=8GB
%nprocshared=4
# opt freq B3LYP/6-31G(d) empiricaldispersion=gd3bj scf=xqc

CID_130532849_JID_1959_neutraal

0 1
C          0.98083        0.06621        0.07244
C         -0.07461       -0.37119        1.07895
C          0.51057       -0.81308        2.43646
N          1.14186        0.32608        3.12726
C          1.41730       -0.01946        4.53040
C          2.79320       -0.71638        4.63612
C          3.44375        0.64736        4.93710
C          2.03439        1.21487        5.27931
C          1.72340        1.17037        6.78319
C          1.79671        2.62599        4.73948
O         -0.97249        0.72184        1.29185
H          1.49556        0.97758        0.39414
H          0.50775        0.30527       -0.88648
H          1.72187       -0.72118       -0.09412
H         -0.65556       -1.19671        0.65360
H         -0.32000       -1.18722        3.04775
H          1.22620       -1.63025        2.29380
H          1.96220        0.62679        2.59947
H          0.59212       -0.51332        5.05426
H          3.17600       -1.23172        3.75009
H          2.85393       -1.41422        5.48051
H          3.91628        1.09976        4.05686
H          4.17525        0.64436        5.75095
H          0.67112        1.41359        6.96687
H          1.91582        0.18111        7.21243
H          2.33884        1.89292        7.33031
H          2.10220        2.72805        3.69295
H          0.73759        2.89607        4.80933
H          2.37143        3.36293        5.31164
H         -0.58045        1.23317        2.02922

--Link1--
%chk=JID_1959.chk
%mem=8GB
%nprocshared=4
# B3LYP/6-311++G(d,p) empiricaldispersion=gd3bj scf=xqc pop=npa geom=check

CID_130532849_JID_1959_Energie_neutraal

0 1

--Link1--
%chk=JID_1959.chk
%mem=8GB
%nprocshared=4
# B3LYP/6-311++G(d,p) empiricaldispersion=gd3bj scf=xqc pop=npa geom=check

CID_130532849_JID_1959_Energie_kation

1 2

--Link1--
%chk=JID_1959.chk
%mem=8GB
%nprocshared=4
# B3LYP/6-311++G(d,p) empiricaldispersion=gd3bj scf=xqc pop=npa geom=check

CID_130532849_JID_1959_Energie_anion

-1 2
