%chk=JID_9416.chk
%mem=8GB
%nprocshared=4
# opt freq B3LYP/6-31G(d) empiricaldispersion=gd3bj scf=xqc

CID_147533203_JID_9416_neutraal

0 1
C          1.07197       -0.05004       -0.04813
C          1.73467        0.82304       -1.10272
C          1.81560        0.19682       -2.50322
N          0.50278        0.14961       -3.15033
C          0.50306        0.92158       -4.39571
C         -0.15110       -1.17030       -3.33503
C          0.28602       -2.32968       -2.42392
C         -1.69564       -1.01108       -3.19920
O         -2.04856       -0.38587       -1.95632
C         -2.66227        0.88977       -2.14745
C         -2.51744        1.77643       -0.92722
C         -2.24864        3.09189       -1.04558
C         -2.16230        4.04549        0.11663
C         -2.36945        3.40218        1.49843
C         -2.63218        1.92064        1.51148
C         -2.71017        1.19324        0.38840
N         -1.15156        3.67200        2.30825
O         -1.22604        4.46088        3.23916
C          0.14504        3.03925        2.02920
H          0.01076       -0.19582       -0.25446
H          1.15267        0.42385        0.93466
H          1.56541       -1.02426        0.01808
H          1.21260        1.78668       -1.15573
H          2.75541        1.04636       -0.76853
H          2.49848        0.83549       -3.08156
H          2.32802       -0.76732       -2.46706
H          1.18088        0.48671       -5.13942
H         -0.49655        0.97778       -4.83824
H          0.81156        1.95651       -4.20821
H          0.05696       -1.52523       -4.35434
H          0.06314       -2.14472       -1.37266
H         -0.25152       -3.24433       -2.70262
H          1.34800       -2.56591       -2.53244
H         -2.17238       -1.99818       -3.20549
H         -2.10996       -0.47016       -4.05873
H         -2.22645        1.39909       -3.01556
H         -3.72634        0.72299       -2.35111
H         -2.10890        3.52930       -2.03142
H         -2.94401        4.80288       -0.02899
H         -1.21101        4.58814        0.05389
H         -3.19727        3.90752        2.01213
H         -2.78070        1.44041        2.47580
H         -2.90303        0.12351        0.44151
H          0.21787        2.13618        2.63829
H          0.21647        2.79878        0.96831
H          0.93850        3.74120        2.29810

--Link1--
%chk=JID_9416.chk
%mem=8GB
%nprocshared=4
# B3LYP/6-311++G(d,p) empiricaldispersion=gd3bj scf=xqc pop=npa geom=check

CID_147533203_JID_9416_Energie_neutraal

0 1

--Link1--
%chk=JID_9416.chk
%mem=8GB
%nprocshared=4
# B3LYP/6-311++G(d,p) empiricaldispersion=gd3bj scf=xqc pop=npa geom=check

CID_147533203_JID_9416_Energie_kation

1 2

--Link1--
%chk=JID_9416.chk
%mem=8GB
%nprocshared=4
# B3LYP/6-311++G(d,p) empiricaldispersion=gd3bj scf=xqc pop=npa geom=check

CID_147533203_JID_9416_Energie_anion

-1 2
