%chk=JID_10847.chk
%mem=8GB
%nprocshared=4
# opt freq B3LYP/6-31G(d) empiricaldispersion=gd3bj scf=xqc

CID_78896722_JID_10847_neutraal

0 1
C          1.00636       -0.09642       -0.02575
C          0.30234        0.16763       -1.34679
C          0.57223       -0.90316       -2.40771
C          0.13523       -2.32584       -2.04527
C         -1.36121       -2.51213       -1.73850
N         -2.07022       -3.34595       -2.71600
C         -3.15416       -4.14878       -2.09729
C         -4.35433       -3.32677       -1.61848
O         -5.20958       -2.91631       -2.40908
N         -4.52389       -3.02809       -0.30252
C         -3.78450       -3.43550        0.87297
C         -3.11226       -2.25991        1.52966
C         -1.87824       -2.23144        2.17165
C         -1.58957       -0.92487        2.68727
C         -2.59935       -0.02349        2.44965
S         -3.90726       -0.73760        1.62644
C         -0.95273       -3.39616        2.32093
C         -2.49206       -2.70756       -3.98243
C         -2.90259       -1.23111       -3.91896
C         -1.40489       -2.90111       -5.04696
H          0.63050       -1.00328        0.45524
H          0.84009        0.73847        0.66253
H          2.08575       -0.20502       -0.17127
H         -0.77246        0.27886       -1.17152
H          0.65000        1.13187       -1.73736
H          0.09695       -0.59647       -3.34377
H          1.65010       -0.92250       -2.61463
H          0.45108       -3.00633       -2.84534
H          0.71124       -2.65345       -1.16994
H         -1.37187       -3.04576       -0.78220
H         -1.88250       -1.57171       -1.54262
H         -3.53284       -4.87760       -2.82624
H         -2.74716       -4.76974       -1.29594
H         -5.32762       -2.43361       -0.14198
H         -4.50999       -3.86852        1.57087
H         -3.06071       -4.21308        0.62791
H         -0.67996       -0.66066        3.21415
H         -2.63569        1.01954        2.73279
H         -0.50073       -3.65255        1.35828
H         -0.14468       -3.17167        3.02483
H         -1.49121       -4.27102        2.69935
H         -3.35962       -3.25502       -4.37556
H         -3.66012       -1.04617       -3.15326
H         -2.05641       -0.57101       -3.71758
H         -3.33091       -0.91956       -4.87855
H         -1.77949       -2.59961       -6.03184
H         -0.51045       -2.30721       -4.84396
H         -1.10890       -3.95363       -5.11997

--Link1--
%chk=JID_10847.chk
%mem=8GB
%nprocshared=4
# B3LYP/6-311++G(d,p) empiricaldispersion=gd3bj scf=xqc pop=npa geom=check

CID_78896722_JID_10847_Energie_neutraal

0 1

--Link1--
%chk=JID_10847.chk
%mem=8GB
%nprocshared=4
# B3LYP/6-311++G(d,p) empiricaldispersion=gd3bj scf=xqc pop=npa geom=check

CID_78896722_JID_10847_Energie_kation

1 2

--Link1--
%chk=JID_10847.chk
%mem=8GB
%nprocshared=4
# B3LYP/6-311++G(d,p) empiricaldispersion=gd3bj scf=xqc pop=npa geom=check

CID_78896722_JID_10847_Energie_anion

-1 2
