%chk=JID_9288.chk
%mem=8GB
%nprocshared=4
# opt freq B3LYP/6-31G(d) empiricaldispersion=gd3bj scf=xqc

CID_80594013_JID_9288_neutraal

0 1
C          2.49200        0.00400       -0.01400
C          1.01250        0.28725       -0.07605
C          0.10064       -0.60314       -0.69006
C         -1.25746       -0.23128       -0.76931
C         -1.71395        0.94428       -0.15147
C         -0.82107        1.78015        0.50957
C          0.53463        1.46386        0.52849
C         -2.20768       -0.93369       -1.65703
O         -1.96773       -1.38155       -2.76025
O         -3.40985       -1.07740       -1.07088
N          0.62844       -1.79363       -1.23478
C          0.15538       -3.08268       -1.23790
O          0.76099       -3.89788       -1.94258
C         -0.92298       -3.51981       -0.23063
C         -0.30005       -4.29129        0.94034
C          0.19446       -5.70026        0.61432
C         -0.88491       -6.59493        0.01586
C         -1.45926       -6.05148       -1.28342
S         -2.27670       -4.44957       -1.03740
H          2.67577       -0.95596        0.47939
H          2.91626       -0.01374       -1.02291
H          3.02715        0.77163        0.55518
H         -2.76133        1.23159       -0.22095
H         -1.17509        2.69520        0.97851
H          1.22363        2.14641        1.02386
H         -3.90291       -1.65722       -1.69181
H          1.52906       -1.72867       -1.69510
H         -1.39158       -2.64100        0.21140
H         -1.03861       -4.36213        1.75038
H          0.54145       -3.71587        1.34708
H          1.05148       -5.65113       -0.06670
H          0.56516       -6.16413        1.53653
H         -0.45264       -7.58420       -0.17789
H         -1.68757       -6.74879        0.74850
H         -0.68709       -5.96431       -2.05297
H         -2.21036       -6.74945       -1.66796

--Link1--
%chk=JID_9288.chk
%mem=8GB
%nprocshared=4
# B3LYP/6-311++G(d,p) empiricaldispersion=gd3bj scf=xqc pop=npa geom=check

CID_80594013_JID_9288_Energie_neutraal

0 1

--Link1--
%chk=JID_9288.chk
%mem=8GB
%nprocshared=4
# B3LYP/6-311++G(d,p) empiricaldispersion=gd3bj scf=xqc pop=npa geom=check

CID_80594013_JID_9288_Energie_kation

1 2

--Link1--
%chk=JID_9288.chk
%mem=8GB
%nprocshared=4
# B3LYP/6-311++G(d,p) empiricaldispersion=gd3bj scf=xqc pop=npa geom=check

CID_80594013_JID_9288_Energie_anion

-1 2
