%chk=JID_9313.chk
%mem=8GB
%nprocshared=4
# opt freq B3LYP/6-31G(d) empiricaldispersion=gd3bj scf=xqc

CID_108080966_JID_9313_neutraal

0 1
C          0.92301        0.01497        0.06204
C          0.73037       -1.32738        0.80084
C         -0.76046       -1.71300        0.69817
C         -1.19042       -3.00128        1.39763
N         -1.15463       -4.16794        0.51531
C          0.14464       -4.71768        0.11021
C          1.40914       -4.10495        0.71570
S          1.86022       -2.51092       -0.04551
C         -2.39004       -4.70877        0.09638
O         -3.46285       -4.23102        0.47867
C         -2.47876       -5.90317       -0.80352
C         -3.67292       -6.61431       -0.83914
N         -3.85374       -7.70323       -1.62588
C         -2.78394       -8.03469       -2.38869
C         -1.58714       -7.31466       -2.39380
N         -1.42203       -6.24782       -1.58665
N         -0.48460       -7.65107       -3.17766
C         -0.76201       -7.80839       -4.59541
C          1.18548       -1.13063        2.25627
H          0.30577        0.79982        0.51598
H          0.63072       -0.05478       -0.99280
H          1.96249        0.36274        0.10386
H         -1.33771       -0.89654        1.15572
H         -1.07495       -1.73952       -0.35421
H         -2.21500       -2.84860        1.75504
H         -0.61684       -3.22336        2.30072
H          0.21130       -4.65333       -0.98126
H          0.12882       -5.77939        0.38463
H          2.24422       -4.77762        0.48841
H          1.36832       -4.03458        1.80505
H         -4.52482       -6.33357       -0.22777
H         -2.91307       -8.91959       -3.00156
H          0.20558       -6.92172       -3.00117
H         -1.25998       -6.92366       -5.00729
H          0.18317       -7.94022       -5.13168
H         -1.37406       -8.69451       -4.79146
H          2.21214       -0.74820        2.30848
H          0.54542       -0.39888        2.76355
H          1.15095       -2.04972        2.84704

--Link1--
%chk=JID_9313.chk
%mem=8GB
%nprocshared=4
# B3LYP/6-311++G(d,p) empiricaldispersion=gd3bj scf=xqc pop=npa geom=check

CID_108080966_JID_9313_Energie_neutraal

0 1

--Link1--
%chk=JID_9313.chk
%mem=8GB
%nprocshared=4
# B3LYP/6-311++G(d,p) empiricaldispersion=gd3bj scf=xqc pop=npa geom=check

CID_108080966_JID_9313_Energie_kation

1 2

--Link1--
%chk=JID_9313.chk
%mem=8GB
%nprocshared=4
# B3LYP/6-311++G(d,p) empiricaldispersion=gd3bj scf=xqc pop=npa geom=check

CID_108080966_JID_9313_Energie_anion

-1 2
