%chk=JID_7853.chk
%mem=8GB
%nprocshared=4
# opt freq B3LYP/6-31G(d) empiricaldispersion=gd3bj scf=xqc

CID_112346327_JID_7853_neutraal

0 1
C          1.04373        0.08702       -0.02269
C          0.72642        0.80373       -1.30497
C          1.34448        2.02507       -1.57076
C          1.04380        2.69539       -2.76035
C          0.16958        2.07822       -3.66291
C         -0.37590        2.32785       -4.94030
N         -1.21844        1.36868       -5.34113
N         -1.19278        0.48362       -4.31742
C         -0.38019        0.86381       -3.28271
N         -0.15576        0.19586       -2.13312
C         -1.97694       -0.72209       -4.40348
C          1.66871        3.97994       -3.10980
O          2.17986        4.12613       -4.21509
N          1.68009        5.01401       -2.20712
C          0.78885        5.22032       -1.06809
C          1.56696        5.33485        0.24126
O          2.50911        6.40109        0.17014
H          0.48512       -0.85189        0.04815
H          0.77259        0.71047        0.83504
H          2.11175       -0.14732        0.02462
H          2.06509        2.43734       -0.87314
H         -0.19199        3.17273       -5.59294
H         -3.02428       -0.44271       -4.54340
H         -1.61945       -1.30361       -5.25706
H         -1.86992       -1.30582       -3.48655
H          2.08112        5.85289       -2.61398
H          0.26833        6.16346       -1.26834
H          0.03713        4.42959       -1.00818
H          0.88329        5.54168        1.06986
H          2.11263        4.41409        0.46753
H          3.13949        6.16647       -0.53457

--Link1--
%chk=JID_7853.chk
%mem=8GB
%nprocshared=4
# B3LYP/6-311++G(d,p) empiricaldispersion=gd3bj scf=xqc pop=npa geom=check

CID_112346327_JID_7853_Energie_neutraal

0 1

--Link1--
%chk=JID_7853.chk
%mem=8GB
%nprocshared=4
# B3LYP/6-311++G(d,p) empiricaldispersion=gd3bj scf=xqc pop=npa geom=check

CID_112346327_JID_7853_Energie_kation

1 2

--Link1--
%chk=JID_7853.chk
%mem=8GB
%nprocshared=4
# B3LYP/6-311++G(d,p) empiricaldispersion=gd3bj scf=xqc pop=npa geom=check

CID_112346327_JID_7853_Energie_anion

-1 2
