%chk=JID_2290.chk
%mem=8GB
%nprocshared=4
# opt freq B3LYP/6-31G(d) empiricaldispersion=gd3bj scf=xqc

CID_57847786_JID_2290_neutraal

0 1
C          0.92268        0.02016       -0.06013
C          0.60550       -0.76181        1.20464
C          1.66868       -0.61067        2.30220
O          1.65003        0.70644        2.86381
C          2.62802        1.60481        2.33190
C          3.89017        1.68649        3.21053
C          4.79788        0.44571        3.12156
O          5.03391        0.07679        1.75618
C          5.87798       -1.06292        1.65703
O          4.61169        2.91485        2.98953
C          5.22396        3.05678        1.71568
O         -0.65929       -0.32085        1.70350
H          0.86179        1.10024        0.10757
H          0.18171       -0.20666       -0.83496
H          1.91375       -0.23149       -0.44899
H          0.50841       -1.82204        0.94722
H          1.40799       -1.28387        3.12638
H          2.65794       -0.89872        1.93943
H          2.86805        1.36915        1.29084
H          2.15668        2.59463        2.31412
H          3.56216        1.74862        4.25575
H          5.75959        0.65548        3.60402
H          4.32061       -0.39686        3.63474
H          6.85679       -0.85427        2.09848
H          5.41585       -1.92472        2.14784
H          6.01409       -1.29686        0.59769
H          6.07769        2.38208        1.61689
H          4.51109        2.90110        0.90239
H          5.60252        4.08030        1.63980
H         -0.46703        0.46932        2.24712

--Link1--
%chk=JID_2290.chk
%mem=8GB
%nprocshared=4
# B3LYP/6-311++G(d,p) empiricaldispersion=gd3bj scf=xqc pop=npa geom=check

CID_57847786_JID_2290_Energie_neutraal

0 1

--Link1--
%chk=JID_2290.chk
%mem=8GB
%nprocshared=4
# B3LYP/6-311++G(d,p) empiricaldispersion=gd3bj scf=xqc pop=npa geom=check

CID_57847786_JID_2290_Energie_kation

1 2

--Link1--
%chk=JID_2290.chk
%mem=8GB
%nprocshared=4
# B3LYP/6-311++G(d,p) empiricaldispersion=gd3bj scf=xqc pop=npa geom=check

CID_57847786_JID_2290_Energie_anion

-1 2
