%chk=JID_8384.chk
%mem=8GB
%nprocshared=4
# opt freq B3LYP/6-31G(d) empiricaldispersion=gd3bj scf=xqc

CID_116061958_JID_8384_neutraal

0 1
C          1.08702       -0.04819        0.01028
C          0.69931       -0.74542       -1.29918
C          0.83652       -2.28103       -1.20075
C          0.04967       -2.99927       -0.09291
C         -1.41793       -3.20598       -0.37338
C         -1.83288       -4.17374       -1.30082
C         -3.18903       -4.36018       -1.57752
C         -4.13350       -3.58040       -0.91951
C         -3.74387       -2.62475        0.01036
C         -2.38799       -2.43850        0.28511
O         -5.46748       -3.72451       -1.16449
N         -0.65497       -0.34270       -1.69631
C         -0.71417        0.35976       -2.97695
C         -0.53807       -0.55236       -4.20004
C         -1.56889       -1.69059       -4.29421
C         -3.01176       -1.20522       -4.40967
S         -1.14401       -2.85731       -5.66241
C         -1.43368       -1.82437       -7.12043
H          0.37312       -0.24995        0.81556
H          1.12563        1.03814       -0.13006
H          2.07766       -0.37426        0.34455
H          1.42981       -0.41477       -2.04962
H          0.60608       -2.72984       -2.17506
H          1.90033       -2.49426       -1.02582
H          0.49280       -3.99524        0.04653
H          0.18544       -2.49898        0.87217
H         -1.09616       -4.77711       -1.82686
H         -3.48148       -5.10643       -2.30886
H         -4.49208       -2.02256        0.51652
H         -2.09246       -1.68189        1.00695
H         -5.57886       -4.41494       -1.83825
H         -1.07334        0.24563       -0.97654
H         -1.68824        0.85724       -3.04666
H          0.02842        1.16699       -3.00425
H         -0.60035        0.08402       -5.09093
H          0.47612       -0.97142       -4.18813
H         -1.49759       -2.30121       -3.39218
H         -3.13690       -0.48004       -5.21999
H         -3.70368       -2.03803       -4.57729
H         -3.32953       -0.71488       -3.48341
H         -2.48399       -1.53395       -7.19355
H         -0.79756       -0.93711       -7.11017
H         -1.18471       -2.40572       -8.01287

--Link1--
%chk=JID_8384.chk
%mem=8GB
%nprocshared=4
# B3LYP/6-311++G(d,p) empiricaldispersion=gd3bj scf=xqc pop=npa geom=check

CID_116061958_JID_8384_Energie_neutraal

0 1

--Link1--
%chk=JID_8384.chk
%mem=8GB
%nprocshared=4
# B3LYP/6-311++G(d,p) empiricaldispersion=gd3bj scf=xqc pop=npa geom=check

CID_116061958_JID_8384_Energie_kation

1 2

--Link1--
%chk=JID_8384.chk
%mem=8GB
%nprocshared=4
# B3LYP/6-311++G(d,p) empiricaldispersion=gd3bj scf=xqc pop=npa geom=check

CID_116061958_JID_8384_Energie_anion

-1 2
