%chk=JID_3205.chk
%mem=8GB
%nprocshared=4
# opt freq B3LYP/6-31G(d) empiricaldispersion=gd3bj scf=xqc

CID_117271852_JID_3205_neutraal

0 1
C          0.97321        0.08126       -0.05176
O          0.72989       -1.23268        0.42410
C          1.44612       -2.25000       -0.27833
C          0.73467       -2.82328       -1.56608
C         -0.72093       -2.34996       -1.70669
C         -1.48771       -3.49628       -2.34362
C         -0.62912       -4.72557       -2.12610
N          0.55773       -4.30236       -1.37238
C          1.66506       -2.53943       -2.81298
C          1.99244       -1.05597       -3.04746
C          2.65756       -0.94524       -4.41045
C          1.73095       -1.63534       -5.38738
S          1.11259       -3.07979       -4.48999
H          0.53505        0.78516        0.66162
H          0.48599        0.23978       -1.01444
H          2.04543        0.28688       -0.11774
H          2.47917       -1.93578       -0.46823
H          1.55732       -3.05337        0.46093
H         -1.17429       -2.16772       -0.72426
H         -0.82925       -1.42978       -2.28733
H         -2.47415       -3.60664       -1.87996
H         -1.65210       -3.31532       -3.41069
H         -1.17625       -5.49073       -1.56385
H         -0.34059       -5.18757       -3.07479
H          0.34726       -4.47342       -0.38717
H          2.61195       -3.07083       -2.64509
H          1.08694       -0.43959       -3.03847
H          2.66984       -0.66554       -2.28286
H          2.81656        0.10117       -4.69109
H          3.64071       -1.43228       -4.39570
H          0.88388       -0.99309       -5.64823
H          2.24654       -1.92819       -6.30549

--Link1--
%chk=JID_3205.chk
%mem=8GB
%nprocshared=4
# B3LYP/6-311++G(d,p) empiricaldispersion=gd3bj scf=xqc pop=npa geom=check

CID_117271852_JID_3205_Energie_neutraal

0 1

--Link1--
%chk=JID_3205.chk
%mem=8GB
%nprocshared=4
# B3LYP/6-311++G(d,p) empiricaldispersion=gd3bj scf=xqc pop=npa geom=check

CID_117271852_JID_3205_Energie_kation

1 2

--Link1--
%chk=JID_3205.chk
%mem=8GB
%nprocshared=4
# B3LYP/6-311++G(d,p) empiricaldispersion=gd3bj scf=xqc pop=npa geom=check

CID_117271852_JID_3205_Energie_anion

-1 2
