%chk=JID_4877.chk
%mem=8GB
%nprocshared=4
# opt freq B3LYP/6-31G(d) empiricaldispersion=gd3bj scf=xqc

CID_66177605_JID_4877_neutraal

0 1
C          1.65700        1.27500        0.13300
C          2.31402       -0.08039       -0.12828
C          1.65977       -1.26399        0.60962
C          0.18456       -1.41509        0.21887
S         -0.75625        0.06923        0.50428
O         -2.01731       -0.05424       -0.20073
O         -0.72494        0.37868        1.92289
C          0.21189        1.30065       -0.33462
N          1.78514       -1.24559        2.06651
C          3.14067       -1.26505        2.61352
C          3.72004        0.09230        3.07340
C          2.95546        0.73559        4.23656
O          3.08288       -0.08637        5.39864
O          5.07652       -0.11564        3.49755
H          1.71200        1.52446        1.19804
H          2.21682        2.05070       -0.40219
H          3.37928       -0.02081        0.12077
H          2.28045       -0.28250       -1.20753
H          2.16050       -2.17740        0.26153
H         -0.30272       -2.22382        0.77429
H          0.09551       -1.64378       -0.84926
H          0.13782        1.10443       -1.40902
H         -0.24727        2.27197       -0.12722
H          1.17832       -0.55915        2.52181
H          3.13323       -1.94292        3.47661
H          3.83874       -1.73989        1.91153
H          3.75622        0.79138        2.23427
H          3.39853        1.70667        4.48074
H          1.89621        0.87739        4.00574
H          2.52171        0.31412        6.08685
H          5.00070       -0.48847        4.40028

--Link1--
%chk=JID_4877.chk
%mem=8GB
%nprocshared=4
# B3LYP/6-311++G(d,p) empiricaldispersion=gd3bj scf=xqc pop=npa geom=check

CID_66177605_JID_4877_Energie_neutraal

0 1

--Link1--
%chk=JID_4877.chk
%mem=8GB
%nprocshared=4
# B3LYP/6-311++G(d,p) empiricaldispersion=gd3bj scf=xqc pop=npa geom=check

CID_66177605_JID_4877_Energie_kation

1 2

--Link1--
%chk=JID_4877.chk
%mem=8GB
%nprocshared=4
# B3LYP/6-311++G(d,p) empiricaldispersion=gd3bj scf=xqc pop=npa geom=check

CID_66177605_JID_4877_Energie_anion

-1 2
