%chk=JID_3628.chk
%mem=8GB
%nprocshared=4
# opt freq B3LYP/6-31G(d) empiricaldispersion=gd3bj scf=xqc

CID_10773692_JID_3628_neutraal

0 1
C          1.04833        0.08755        0.00023
C          1.32905        0.07750       -1.49452
N          1.67698       -1.26668       -1.94926
C          0.57909       -2.10384       -2.42148
C          0.46057       -2.02405       -3.93550
C          2.97738       -1.74097       -1.85981
N          3.89428       -0.97235       -1.33310
C          5.20837       -1.33092       -1.19278
C          5.93090       -1.87433       -2.18597
C          5.28988       -2.27777       -3.46999
C          4.22721       -3.26289       -3.07319
N          3.20835       -3.01933       -2.31185
C          5.83600       -0.95624        0.11965
H          0.22495       -0.58904        0.25169
H          0.77269        1.09508        0.32687
H          1.92540       -0.22722        0.57461
H          0.44183        0.43853       -2.02913
H          2.12697        0.79077       -1.73246
H          0.71211       -3.14561       -2.10754
H         -0.36774       -1.77982       -1.97222
H          1.37273       -2.37595       -4.42765
H         -0.37320       -2.64169       -4.28350
H          0.28156       -0.99435       -4.26232
H          6.98696       -2.08390       -2.05282
H          4.85884       -1.42908       -4.00853
H          6.01052       -2.78035       -4.12164
H          4.35552       -4.29488       -3.44065
H          5.73003        0.11869        0.30011
H          5.34618       -1.49421        0.93810
H          6.90360       -1.19766        0.15241

--Link1--
%chk=JID_3628.chk
%mem=8GB
%nprocshared=4
# B3LYP/6-311++G(d,p) empiricaldispersion=gd3bj scf=xqc pop=npa geom=check

CID_10773692_JID_3628_Energie_neutraal

0 1

--Link1--
%chk=JID_3628.chk
%mem=8GB
%nprocshared=4
# B3LYP/6-311++G(d,p) empiricaldispersion=gd3bj scf=xqc pop=npa geom=check

CID_10773692_JID_3628_Energie_kation

1 2

--Link1--
%chk=JID_3628.chk
%mem=8GB
%nprocshared=4
# B3LYP/6-311++G(d,p) empiricaldispersion=gd3bj scf=xqc pop=npa geom=check

CID_10773692_JID_3628_Energie_anion

-1 2
