%chk=JID_6590.chk
%mem=8GB
%nprocshared=4
# opt freq B3LYP/6-31G(d) empiricaldispersion=gd3bj scf=xqc

CID_116796323_JID_6590_neutraal

0 1
C          0.96639       -0.00458       -0.09407
C          0.45954        0.83787       -1.25487
C          1.30841        2.06480       -1.47131
C          2.51637        1.97061       -2.18635
C          3.33600        3.08465       -2.39758
C          2.91695        4.31060       -1.85637
C          1.72322        4.42084       -1.13863
C          0.92161        3.30004       -0.94474
N          4.55375        3.04023       -3.08445
C          5.28854        2.02834       -3.69644
N          4.89576        0.74685       -3.66989
C          5.67754       -0.14949       -4.29365
C          6.84316        0.18308       -4.93166
C          7.17849        1.51354       -4.89571
N          6.41910        2.43949       -4.29832
N          8.33415        1.96624       -5.53280
H          1.98784       -0.35715       -0.27269
H          0.32573       -0.88110        0.04515
H          0.96720        0.56782        0.83980
H          0.44527        0.23795       -2.17302
H         -0.58058        1.13201       -1.06874
H          2.80319        0.99979       -2.57999
H          3.52596        5.20174       -1.98691
H          1.42321        5.38141       -0.72881
H         -0.00284        3.39453       -0.38038
H          5.02169        3.92012       -3.24062
H          5.32290       -1.17505       -4.26520
H          7.44817       -0.55442       -5.43835
H          8.41257        2.96383       -5.35093
H          9.15790        1.46308       -5.22357

--Link1--
%chk=JID_6590.chk
%mem=8GB
%nprocshared=4
# B3LYP/6-311++G(d,p) empiricaldispersion=gd3bj scf=xqc pop=npa geom=check

CID_116796323_JID_6590_Energie_neutraal

0 1

--Link1--
%chk=JID_6590.chk
%mem=8GB
%nprocshared=4
# B3LYP/6-311++G(d,p) empiricaldispersion=gd3bj scf=xqc pop=npa geom=check

CID_116796323_JID_6590_Energie_kation

1 2

--Link1--
%chk=JID_6590.chk
%mem=8GB
%nprocshared=4
# B3LYP/6-311++G(d,p) empiricaldispersion=gd3bj scf=xqc pop=npa geom=check

CID_116796323_JID_6590_Energie_anion

-1 2
