%chk=JID_7891.chk
%mem=8GB
%nprocshared=4
# opt freq B3LYP/6-31G(d) empiricaldispersion=gd3bj scf=xqc

CID_54818347_JID_7891_neutraal

0 1
C          1.07237       -0.05010        0.04747
C          0.95708        0.69597       -1.26883
O          1.47229       -0.12740       -2.32120
C          2.73438        0.24105       -2.68914
C          2.95881        1.39760       -3.42679
C          4.25669        1.72350       -3.83989
C          5.33225        0.88824       -3.53965
C          5.08263       -0.27485       -2.79241
C          3.78864       -0.60829       -2.38411
N          6.67167        1.10642       -3.90749
C          7.30822        1.96076       -4.75831
O          8.54541        1.89988       -4.78971
C          6.58125        2.94132       -5.67433
N          5.72836        2.21734       -6.62504
C          4.98841        3.09449       -7.52002
C          5.83564        3.60378       -8.64578
C          5.64022        3.29284       -9.93444
H          0.57727       -1.02472       -0.01605
H          0.61820        0.52397        0.86010
H          2.12089       -0.23978        0.29850
H         -0.09937        0.88092       -1.49133
H          1.45059        1.67361       -1.19938
H          2.12939        2.04555       -3.69514
H          4.36937        2.64362       -4.39305
H          5.89138       -0.95677       -2.54006
H          3.60744       -1.52669       -1.83366
H          7.34765        0.47639       -3.49147
H          6.03314        3.66355       -5.06287
H          7.35099        3.50570       -6.21437
H          6.29434        1.56898       -7.17321
H          4.14195        2.52266       -7.91886
H          4.54879        3.93713       -6.97331
H          6.64490        4.28377       -8.39127
H          6.28296        3.70044      -10.70862
H          4.84309        2.62419      -10.24580

--Link1--
%chk=JID_7891.chk
%mem=8GB
%nprocshared=4
# B3LYP/6-311++G(d,p) empiricaldispersion=gd3bj scf=xqc pop=npa geom=check

CID_54818347_JID_7891_Energie_neutraal

0 1

--Link1--
%chk=JID_7891.chk
%mem=8GB
%nprocshared=4
# B3LYP/6-311++G(d,p) empiricaldispersion=gd3bj scf=xqc pop=npa geom=check

CID_54818347_JID_7891_Energie_kation

1 2

--Link1--
%chk=JID_7891.chk
%mem=8GB
%nprocshared=4
# B3LYP/6-311++G(d,p) empiricaldispersion=gd3bj scf=xqc pop=npa geom=check

CID_54818347_JID_7891_Energie_anion

-1 2
