%chk=JID_638.chk
%mem=8GB
%nprocshared=4
# opt freq B3LYP/6-31G(d) empiricaldispersion=gd3bj scf=xqc

CID_537791_JID_638_neutraal

0 1
C          0.94912       -0.08466       -0.01564
C          0.03036        0.04365       -1.22199
C          0.22530       -1.07082       -2.25171
C         -0.08353       -2.48072       -1.75075
O         -1.48605       -2.68291       -1.60208
C         -1.96759       -2.67457       -0.25535
C         -1.63070       -3.97151        0.47175
C         -0.57076       -3.75131        1.52962
O         -0.63701       -2.81982        2.33160
C          0.55629       -4.74711        1.58791
H          0.71802       -0.97074        0.58033
H          0.83611        0.78856        0.63500
H          1.99747       -0.14081       -0.32549
H         -1.01330        0.08469       -0.89385
H          0.23645        1.00340       -1.71162
H         -0.41768       -0.85051       -3.11280
H          1.26243       -1.04261       -2.60720
H          0.24332       -3.18875       -2.52064
H          0.47377       -2.72842       -0.84389
H         -1.62840       -1.77558        0.26567
H         -3.05764       -2.60006       -0.33670
H         -2.51162       -4.35359        0.99993
H         -1.29585       -4.74332       -0.22911
H          0.15302       -5.74940        1.74976
H          1.12430       -4.71259        0.65520
H          1.22490       -4.49668        2.41647

--Link1--
%chk=JID_638.chk
%mem=8GB
%nprocshared=4
# B3LYP/6-311++G(d,p) empiricaldispersion=gd3bj scf=xqc pop=npa geom=check

CID_537791_JID_638_Energie_neutraal

0 1

--Link1--
%chk=JID_638.chk
%mem=8GB
%nprocshared=4
# B3LYP/6-311++G(d,p) empiricaldispersion=gd3bj scf=xqc pop=npa geom=check

CID_537791_JID_638_Energie_kation

1 2

--Link1--
%chk=JID_638.chk
%mem=8GB
%nprocshared=4
# B3LYP/6-311++G(d,p) empiricaldispersion=gd3bj scf=xqc pop=npa geom=check

CID_537791_JID_638_Energie_anion

-1 2
