%chk=JID_4622.chk
%mem=8GB
%nprocshared=4
# opt freq B3LYP/6-31G(d) empiricaldispersion=gd3bj scf=xqc

CID_143884957_JID_4622_neutraal

0 1
C          0.97545       -0.01820       -0.09522
C          1.12751        1.00879       -1.19428
C          2.29338       -4.81158       -0.80814
C          1.69375       -3.92731       -1.86009
C          0.43848       -3.42949       -1.90113
C         -0.49312       -3.75678       -0.82433
C         -1.49005       -4.65518       -0.86896
C         -1.83173       -5.48581       -2.00027
C         -2.87093       -6.32881       -1.99571
C          0.08886       -2.59674       -3.01321
C          0.74077       -2.08779       -4.12105
C         -0.22343       -1.32797       -4.80781
N         -1.40805       -1.34198       -4.19739
N         -1.19608       -2.11921       -3.12004
H         -0.01714       -0.47633       -0.13313
H          1.10106        0.44834        0.88636
H          1.72572       -0.80748       -0.19944
H          1.00686        0.54348       -2.17648
H          0.37413        1.79546       -1.09182
H          2.11763        1.47228       -1.15281
H          1.60452       -5.06268        0.00216
H          3.16334       -4.31549       -0.36603
H          2.63075       -5.74753       -1.26436
H          2.39460       -3.69136       -2.65808
H         -0.33625       -3.19461        0.09555
H         -2.09884       -4.77932        0.02584
H         -1.21350       -5.42448       -2.89406
H         -3.08952       -6.93441       -2.87022
H         -3.52610       -6.44053       -1.13786
H          1.77293       -2.23627       -4.40186
H         -0.11070       -0.76549       -5.72560
H         -1.97605       -2.29474       -2.49613

--Link1--
%chk=JID_4622.chk
%mem=8GB
%nprocshared=4
# B3LYP/6-311++G(d,p) empiricaldispersion=gd3bj scf=xqc pop=npa geom=check

CID_143884957_JID_4622_Energie_neutraal

0 1

--Link1--
%chk=JID_4622.chk
%mem=8GB
%nprocshared=4
# B3LYP/6-311++G(d,p) empiricaldispersion=gd3bj scf=xqc pop=npa geom=check

CID_143884957_JID_4622_Energie_kation

1 2

--Link1--
%chk=JID_4622.chk
%mem=8GB
%nprocshared=4
# B3LYP/6-311++G(d,p) empiricaldispersion=gd3bj scf=xqc pop=npa geom=check

CID_143884957_JID_4622_Energie_anion

-1 2
