%chk=JID_6675.chk
%mem=8GB
%nprocshared=4
# opt freq B3LYP/6-31G(d) empiricaldispersion=gd3bj scf=xqc

CID_80559431_JID_6675_neutraal

0 1
C          2.53000       -0.71200       -0.31700
C          2.52701        0.57251        0.49751
C          1.39247        1.48432        0.03422
C          0.05452        0.78393       -0.07295
C         -0.00477       -0.62571       -0.15781
C          1.23580       -1.48450       -0.08416
C         -1.24992       -1.26652       -0.24579
C         -2.42729       -0.52664       -0.27379
C         -2.37315        0.86303       -0.20875
C         -1.14380        1.53048       -0.10084
N         -1.13774        2.95263       -0.11716
C         -0.79154        3.67761       -1.31478
C         -0.78495        5.20813       -1.09256
C         -1.59709        5.36467       -2.39397
C         -1.97992        3.87455       -2.28576
N         -0.68590        5.55373       -3.52433
H          2.63717       -0.47300       -1.38268
H          3.38705       -1.33593       -0.03997
H          2.40942        0.33664        1.56272
H          3.48508        1.09254        0.38621
H          1.32533        2.32555        0.73389
H          1.64990        1.88563       -0.95289
H          1.17215       -2.29346       -0.82190
H          1.26709       -1.94664        0.91078
H         -1.30413       -2.35212       -0.29207
H         -3.38615       -1.03124       -0.35231
H         -3.30129        1.42582       -0.25556
H         -2.01754        3.29055        0.27014
H          0.11918        3.31058       -1.79870
H         -1.33977        5.54268       -0.20649
H          0.20450        5.67604       -1.06425
H         -2.42725        6.07436       -2.36245
H         -1.93964        3.28192       -3.20550
H         -2.96944        3.72698       -1.83452
H         -0.25073        6.47550       -3.55010
H          0.07717        4.88139       -3.59540

--Link1--
%chk=JID_6675.chk
%mem=8GB
%nprocshared=4
# B3LYP/6-311++G(d,p) empiricaldispersion=gd3bj scf=xqc pop=npa geom=check

CID_80559431_JID_6675_Energie_neutraal

0 1

--Link1--
%chk=JID_6675.chk
%mem=8GB
%nprocshared=4
# B3LYP/6-311++G(d,p) empiricaldispersion=gd3bj scf=xqc pop=npa geom=check

CID_80559431_JID_6675_Energie_kation

1 2

--Link1--
%chk=JID_6675.chk
%mem=8GB
%nprocshared=4
# B3LYP/6-311++G(d,p) empiricaldispersion=gd3bj scf=xqc pop=npa geom=check

CID_80559431_JID_6675_Energie_anion

-1 2
