%chk=JID_2797.chk
%mem=8GB
%nprocshared=4
# opt freq B3LYP/6-31G(d) empiricaldispersion=gd3bj scf=xqc

CID_150598321_JID_2797_neutraal

0 1
C          1.03818        0.03121       -0.08699
C          0.60922       -0.30168        1.33292
C          0.92765        0.80341        2.34251
C          0.22644        2.14222        2.10387
N         -1.23998        2.04753        2.16734
N         -1.92587        2.76569        3.16031
C         -2.63778        1.89005        4.10529
C         -1.74202        1.18577        5.14093
N         -0.73922        2.07464        5.74112
N         -1.85327        1.85208        0.95424
N         -3.08949        2.01354        0.88391
N         -4.22018        2.14036        0.78369
H          0.47119        0.87269       -0.49453
H          0.86874       -0.82989       -0.74148
H          2.10314        0.28108       -0.12672
H         -0.45995       -0.53931        1.34986
H          1.13237       -1.21333        1.64661
H          0.67228        0.43576        3.34228
H          2.01104        0.97689        2.34670
H          0.57193        2.85623        2.86089
H          0.50753        2.56977        1.13423
H         -1.28260        3.34171        3.70824
H         -3.34521        2.52826        4.64910
H         -3.24530        1.14612        3.57686
H         -2.37819        0.78363        5.93725
H         -1.23226        0.33433        4.67841
H         -0.30583        1.59018        6.52795
H          0.01275        2.21700        5.06919

--Link1--
%chk=JID_2797.chk
%mem=8GB
%nprocshared=4
# B3LYP/6-311++G(d,p) empiricaldispersion=gd3bj scf=xqc pop=npa geom=check

CID_150598321_JID_2797_Energie_neutraal

0 1

--Link1--
%chk=JID_2797.chk
%mem=8GB
%nprocshared=4
# B3LYP/6-311++G(d,p) empiricaldispersion=gd3bj scf=xqc pop=npa geom=check

CID_150598321_JID_2797_Energie_kation

1 2

--Link1--
%chk=JID_2797.chk
%mem=8GB
%nprocshared=4
# B3LYP/6-311++G(d,p) empiricaldispersion=gd3bj scf=xqc pop=npa geom=check

CID_150598321_JID_2797_Energie_anion

-1 2
