%chk=JID_8088.chk
%mem=8GB
%nprocshared=4
# opt freq B3LYP/6-31G(d) empiricaldispersion=gd3bj scf=xqc

CID_62255299_JID_8088_neutraal

0 1
C          2.50100       -0.11500        0.00200
C          1.00944       -0.14085       -0.16217
C          0.24398       -1.25572       -0.55391
N         -1.11214       -1.12567       -0.61776
C         -1.71364        0.04490       -0.32474
C         -1.03083        1.17364        0.04741
C          0.34594        1.07406        0.12526
N          0.72149       -2.51674       -0.87391
C         -0.30437       -3.51594       -1.18638
C          2.08621       -2.87358       -1.24790
C          2.59560       -2.30384       -2.55673
C          3.97613       -2.36798       -2.81283
C          4.51376       -1.84770       -3.99149
C          3.68511       -1.25386       -4.95072
C          2.30553       -1.21372       -4.71359
C          1.76689       -1.73925       -3.53407
C          4.26985       -0.67939       -6.21501
N          5.22316        0.38746       -5.92696
H          2.82846       -0.89220        0.69720
H          3.00823       -0.19853       -0.95951
H          2.84023        0.83054        0.44230
H         -2.79605        0.03974       -0.40182
H         -1.54826        2.09648        0.27571
H          0.91376        1.95259        0.42541
H          0.12841       -4.51297       -1.32604
H         -1.02646       -3.61640       -0.36698
H         -0.83561       -3.26364       -2.11136
H          2.77361       -2.63042       -0.43367
H          2.16901       -3.96540       -1.33862
H          4.64915       -2.81316       -2.08276
H          5.58867       -1.89087       -4.15678
H          1.63316       -0.76550       -5.44142
H          0.69152       -1.68152       -3.38055
H          4.76703       -1.47842       -6.77617
H          3.47523       -0.28180       -6.85648
H          5.49390        0.83587       -6.79926
H          4.75283        1.09968       -5.36964

--Link1--
%chk=JID_8088.chk
%mem=8GB
%nprocshared=4
# B3LYP/6-311++G(d,p) empiricaldispersion=gd3bj scf=xqc pop=npa geom=check

CID_62255299_JID_8088_Energie_neutraal

0 1

--Link1--
%chk=JID_8088.chk
%mem=8GB
%nprocshared=4
# B3LYP/6-311++G(d,p) empiricaldispersion=gd3bj scf=xqc pop=npa geom=check

CID_62255299_JID_8088_Energie_kation

1 2

--Link1--
%chk=JID_8088.chk
%mem=8GB
%nprocshared=4
# B3LYP/6-311++G(d,p) empiricaldispersion=gd3bj scf=xqc pop=npa geom=check

CID_62255299_JID_8088_Energie_anion

-1 2
