%chk=JID_6396.chk
%mem=8GB
%nprocshared=4
# opt freq B3LYP/6-31G(d) empiricaldispersion=gd3bj scf=xqc

CID_146883531_JID_6396_neutraal

0 1
C          1.07004       -0.02334        0.06745
C          1.24905       -1.52152        0.23997
N          1.52642       -1.87409        1.66676
C          0.71240       -3.02756        2.14458
C          1.04954       -4.34952        1.47739
S          3.19438       -1.84313        2.09791
O          3.83086       -2.92221        1.36898
O          3.63556       -0.47846        1.84433
C          3.30250       -2.13047        3.84488
C          3.17374       -1.05909        4.66994
C          3.20608       -1.14100        6.13147
C          2.14935       -1.53483        6.86580
C          0.78695       -1.91186        6.37636
N          4.39946       -0.76926        6.72374
O          3.05292        0.26460        4.27543
S          3.59397       -3.76221        4.45192
H          0.33301        0.36903        0.77577
H          0.72289        0.19996       -0.94647
H          2.00583        0.51973        0.22068
H          0.32365       -2.00778       -0.09108
H          2.04415       -1.89514       -0.41401
H          0.79869       -3.11705        3.23099
H         -0.34451       -2.79314        1.96453
H          2.05420       -4.69320        1.73390
H          0.34866       -5.12201        1.81067
H          0.98307       -4.28584        0.38737
H          2.26118       -1.58399        7.94710
H          0.60622       -2.97507        6.56183
H          0.03134       -1.33811        6.92258
H          0.63975       -1.71632        5.31154
H          4.85383       -0.03032        6.18636
H          4.28276       -0.48466        7.69271
H          3.24789        0.35889        3.31774
H          4.14637       -3.43558        5.63157

--Link1--
%chk=JID_6396.chk
%mem=8GB
%nprocshared=4
# B3LYP/6-311++G(d,p) empiricaldispersion=gd3bj scf=xqc pop=npa geom=check

CID_146883531_JID_6396_Energie_neutraal

0 1

--Link1--
%chk=JID_6396.chk
%mem=8GB
%nprocshared=4
# B3LYP/6-311++G(d,p) empiricaldispersion=gd3bj scf=xqc pop=npa geom=check

CID_146883531_JID_6396_Energie_kation

1 2

--Link1--
%chk=JID_6396.chk
%mem=8GB
%nprocshared=4
# B3LYP/6-311++G(d,p) empiricaldispersion=gd3bj scf=xqc pop=npa geom=check

CID_146883531_JID_6396_Energie_anion

-1 2
