%chk=JID_5413.chk
%mem=8GB
%nprocshared=4
# opt freq B3LYP/6-31G(d) empiricaldispersion=gd3bj scf=xqc

CID_63898137_JID_5413_neutraal

0 1
C          0.93144        0.02557       -0.06816
C          0.66577        1.23377        0.80987
O          1.19867        2.42046        0.20022
C          2.50934        2.68523        0.45105
O          3.24773        1.98602        1.13250
C          2.92738        3.99227       -0.14486
C          2.31885        4.29740       -1.48825
O          1.74942        5.37334       -1.69292
C          2.53726        3.29062       -2.61587
N          3.94959        3.29701       -3.03384
C          4.28133        2.08615       -3.78031
C          4.37407        4.53821       -3.71696
C          4.13394        4.71580       -5.22561
C          2.72316        4.89151       -5.57833
N          1.61229        5.01407       -5.89069
H          0.52522        0.18393       -1.07261
H          0.47667       -0.87237        0.35945
H          2.00594       -0.14792       -0.18391
H         -0.41398        1.38489        0.91066
H          1.06698        1.09284        1.82000
H          2.65008        4.78356        0.55983
H          4.01646        4.00319       -0.25627
H          2.25128        2.30432       -2.23381
H          1.84921        3.50950       -3.43677
H          3.66834        1.96903       -4.68044
H          5.33745        2.08657       -4.07192
H          4.13332        1.19981       -3.15308
H          3.99040        5.41618       -3.18301
H          5.46231        4.59230       -3.57360
H          4.68532        5.60616       -5.55352
H          4.56160        3.87884       -5.78805

--Link1--
%chk=JID_5413.chk
%mem=8GB
%nprocshared=4
# B3LYP/6-311++G(d,p) empiricaldispersion=gd3bj scf=xqc pop=npa geom=check

CID_63898137_JID_5413_Energie_neutraal

0 1

--Link1--
%chk=JID_5413.chk
%mem=8GB
%nprocshared=4
# B3LYP/6-311++G(d,p) empiricaldispersion=gd3bj scf=xqc pop=npa geom=check

CID_63898137_JID_5413_Energie_kation

1 2

--Link1--
%chk=JID_5413.chk
%mem=8GB
%nprocshared=4
# B3LYP/6-311++G(d,p) empiricaldispersion=gd3bj scf=xqc pop=npa geom=check

CID_63898137_JID_5413_Energie_anion

-1 2
