%chk=JID_7499.chk
%mem=8GB
%nprocshared=4
# opt freq B3LYP/6-31G(d) empiricaldispersion=gd3bj scf=xqc

CID_114984131_JID_7499_neutraal

0 1
C          1.07018        0.02945       -0.06486
C          0.64901        0.10768       -1.52579
C          1.24640       -1.00032       -2.39905
N          0.70674       -2.31492       -2.03885
C          1.15745       -3.38826       -2.93261
C          2.67581       -3.69264       -2.87597
C          3.38721       -3.73238       -1.51415
C          3.03106       -4.88006       -0.56073
C          3.29337       -6.26691       -1.14259
O          3.66147       -4.71100        0.71827
C          5.07682       -4.82062        0.75256
C          0.29263       -4.64187       -2.69666
C         -1.21405       -4.43487       -2.85003
S         -1.76331       -4.05902       -4.50676
O         -0.73165       -4.44668       -5.45076
O         -3.10814       -4.58988       -4.64197
C         -1.90938       -2.28829       -4.54328
H          0.68103       -0.87157        0.41851
H          0.68346        0.89409        0.48402
H          2.16076        0.02866        0.02908
H         -0.44571        0.08957       -1.59173
H          0.97133        1.07592       -1.92772
H          1.00094       -0.77517       -3.44326
H          2.33751       -0.98064       -2.30642
H          0.96477       -2.53337       -1.07503
H          0.96326       -3.07330       -3.96455
H          2.87921       -4.62182       -3.42220
H          3.18079       -2.90944       -3.45931
H          4.46284       -3.77840       -1.72800
H          3.25425       -2.77976       -0.98765
H          1.96716       -4.81235       -0.32468
H          4.31882       -6.35674       -1.51603
H          3.15872       -7.03773       -0.37638
H          2.61692       -6.48760       -1.97302
H          5.40980       -5.80645        0.41875
H          5.55100       -4.03480        0.15998
H          5.39698       -4.69407        1.79088
H          0.61680       -5.43624       -3.38047
H          0.45128       -5.02660       -1.68658
H         -1.71571       -5.37355       -2.58463
H         -1.60911       -3.66914       -2.17636
H         -2.55421       -1.96840       -3.72306
H         -0.92292       -1.83637       -4.46446
H         -2.36151       -2.00961       -5.49799

--Link1--
%chk=JID_7499.chk
%mem=8GB
%nprocshared=4
# B3LYP/6-311++G(d,p) empiricaldispersion=gd3bj scf=xqc pop=npa geom=check

CID_114984131_JID_7499_Energie_neutraal

0 1

--Link1--
%chk=JID_7499.chk
%mem=8GB
%nprocshared=4
# B3LYP/6-311++G(d,p) empiricaldispersion=gd3bj scf=xqc pop=npa geom=check

CID_114984131_JID_7499_Energie_kation

1 2

--Link1--
%chk=JID_7499.chk
%mem=8GB
%nprocshared=4
# B3LYP/6-311++G(d,p) empiricaldispersion=gd3bj scf=xqc pop=npa geom=check

CID_114984131_JID_7499_Energie_anion

-1 2
