%chk=JID_10797.chk
%mem=8GB
%nprocshared=4
# opt freq B3LYP/6-31G(d) empiricaldispersion=gd3bj scf=xqc

CID_80042638_JID_10797_neutraal

0 1
C          0.90239       -0.01542       -0.01531
C          0.68592       -0.94450        1.14069
C          0.08043       -0.55749        2.28555
C         -0.09249       -1.48605        3.34945
N         -0.64834       -1.37973        4.53428
C         -0.48328       -2.62438        5.06161
N          0.14136       -3.50245        4.28309
N          0.38910       -2.78120        3.16836
C          1.01012       -3.18949        1.99039
C          1.16723       -2.31701        0.98109
N         -0.94822       -2.92251        6.27876
C         -1.90498       -2.10152        6.98842
C         -3.36462       -2.46349        6.70773
C         -3.73922       -3.93917        6.85940
C         -4.70637       -4.21700        5.71001
N         -5.09844       -2.91129        5.15933
C         -3.87533       -2.09573        5.31876
C         -6.29306       -2.25874        5.73755
C         -7.61880       -2.97343        5.71279
C         -6.95617       -2.66371        7.02431
H          0.52816        0.99204        0.19622
H          0.38200       -0.38244       -0.90641
H          1.96966        0.06980       -0.24625
H         -0.28591        0.45301        2.42970
H          1.33720       -4.21958        1.95442
H          1.64406       -2.61181        0.05150
H         -0.86265       -3.88722        6.57090
H         -1.71997       -2.24558        8.06014
H         -1.73819       -1.03354        6.80054
H         -3.96551       -1.89838        7.43608
H         -4.22180       -4.10206        7.82945
H         -2.88462       -4.61892        6.80271
H         -4.17351       -4.76783        4.92372
H         -5.54106       -4.85799        6.00862
H         -4.05906       -1.02066        5.21337
H         -3.17494       -2.38268        4.52870
H         -6.36339       -1.20081        5.47971
H         -8.49430       -2.39859        5.43419
H         -7.64961       -4.00367        5.38033
H         -6.57471       -3.49359        7.60295
H         -7.38584       -1.87682        7.63440

--Link1--
%chk=JID_10797.chk
%mem=8GB
%nprocshared=4
# B3LYP/6-311++G(d,p) empiricaldispersion=gd3bj scf=xqc pop=npa geom=check

CID_80042638_JID_10797_Energie_neutraal

0 1

--Link1--
%chk=JID_10797.chk
%mem=8GB
%nprocshared=4
# B3LYP/6-311++G(d,p) empiricaldispersion=gd3bj scf=xqc pop=npa geom=check

CID_80042638_JID_10797_Energie_kation

1 2

--Link1--
%chk=JID_10797.chk
%mem=8GB
%nprocshared=4
# B3LYP/6-311++G(d,p) empiricaldispersion=gd3bj scf=xqc pop=npa geom=check

CID_80042638_JID_10797_Energie_anion

-1 2
