%chk=JID_5687.chk
%mem=8GB
%nprocshared=4
# opt freq B3LYP/6-31G(d) empiricaldispersion=gd3bj scf=xqc

CID_84122398_JID_5687_neutraal

0 1
C          0.96818        0.07575        0.05701
C          0.16346        1.34057       -0.26559
C         -1.02588        1.49293        0.69194
N         -0.63782        1.97314        1.99678
C          0.34070        2.91878        2.15276
O          0.37807        3.55976        3.20425
C          1.41748        3.07208        1.05747
N          1.00900        2.54129       -0.27110
C          0.72006        3.58576       -1.27106
C         -0.54482        3.67470       -2.08361
C         -0.29457        4.66650       -0.99109
C          2.74316        2.47960        1.57109
C          3.91312        2.52670        0.58346
N          4.30076        3.89972        0.25145
C          5.45602        3.91160       -0.63693
H          0.37311       -0.81456       -0.17770
H          1.23918        0.00439        1.11309
H          1.88157        0.02323       -0.54512
H         -0.22603        1.16226       -1.27526
H         -1.74873        2.21429        0.29647
H         -1.55100        0.54218        0.83144
H         -1.32336        1.98126        2.74175
H          1.56770        4.15676        0.96716
H          1.62136        3.91251       -1.79031
H         -0.45604        4.01880       -3.10892
H         -1.35711        2.97587       -1.94015
H         -0.90948        4.60292       -0.10154
H         -0.03806        5.68192       -1.27182
H          3.03532        3.01575        2.48523
H          2.60169        1.44266        1.89240
H          4.76381        2.01690        1.05263
H          3.66418        1.96708       -0.32550
H          3.52235        4.36156       -0.21752
H          5.24227        3.39841       -1.58026
H          5.72509        4.94637       -0.87028
H          6.32539        3.44433       -0.16319

--Link1--
%chk=JID_5687.chk
%mem=8GB
%nprocshared=4
# B3LYP/6-311++G(d,p) empiricaldispersion=gd3bj scf=xqc pop=npa geom=check

CID_84122398_JID_5687_Energie_neutraal

0 1

--Link1--
%chk=JID_5687.chk
%mem=8GB
%nprocshared=4
# B3LYP/6-311++G(d,p) empiricaldispersion=gd3bj scf=xqc pop=npa geom=check

CID_84122398_JID_5687_Energie_kation

1 2

--Link1--
%chk=JID_5687.chk
%mem=8GB
%nprocshared=4
# B3LYP/6-311++G(d,p) empiricaldispersion=gd3bj scf=xqc pop=npa geom=check

CID_84122398_JID_5687_Energie_anion

-1 2
