%chk=JID_3155.chk
%mem=8GB
%nprocshared=4
# opt freq B3LYP/6-31G(d) empiricaldispersion=gd3bj scf=xqc

CID_152489222_JID_3155_neutraal

0 1
C          1.07813       -0.05354        0.03207
C          0.56027        0.22644        1.45529
C          1.12200        1.58604        1.91831
C         -0.97678        0.34252        1.38916
C          0.95033       -0.87703        2.48261
C          0.52359       -2.30605        2.13542
C          1.25733       -3.14051        3.17747
C          2.61990       -2.45633        3.34218
C          2.45229       -1.03868        2.76779
N          3.66208       -3.20098        2.64011
N          5.00371       -2.91253        2.77578
N          5.38218       -2.33704        3.82108
N          5.73109       -1.80641        4.76915
H          0.80196        0.76023       -0.64927
H          0.65296       -0.97284       -0.38271
H          2.16822       -0.14016        0.00153
H          0.78780        2.39740        1.26139
H          0.78983        1.82547        2.93472
H          2.21726        1.59319        1.91124
H         -1.43419       -0.57520        1.00470
H         -1.40177        0.54140        2.37941
H         -1.28379        1.16105        0.72784
H          0.47241       -0.61743        3.44030
H         -0.55858       -2.45113        2.20034
H          0.85402       -2.59960        1.13368
H          1.32529       -4.19374        2.88664
H          0.70850       -3.09157        4.12641
H          2.87643       -2.43269        4.40701
H          3.05120       -0.91350        1.85990
H          2.79694       -0.28794        3.48776
H          3.44091       -3.53776        1.70360

--Link1--
%chk=JID_3155.chk
%mem=8GB
%nprocshared=4
# B3LYP/6-311++G(d,p) empiricaldispersion=gd3bj scf=xqc pop=npa geom=check

CID_152489222_JID_3155_Energie_neutraal

0 1

--Link1--
%chk=JID_3155.chk
%mem=8GB
%nprocshared=4
# B3LYP/6-311++G(d,p) empiricaldispersion=gd3bj scf=xqc pop=npa geom=check

CID_152489222_JID_3155_Energie_kation

1 2

--Link1--
%chk=JID_3155.chk
%mem=8GB
%nprocshared=4
# B3LYP/6-311++G(d,p) empiricaldispersion=gd3bj scf=xqc pop=npa geom=check

CID_152489222_JID_3155_Energie_anion

-1 2
