%chk=JID_4992.chk
%mem=8GB
%nprocshared=4
# opt freq B3LYP/6-31G(d) empiricaldispersion=gd3bj scf=xqc

CID_83847862_JID_4992_neutraal

0 1
C          0.96596        0.06843       -0.06448
C          0.54793       -0.63074        1.22957
C         -0.98433       -0.88641        1.40936
C         -1.91571        0.13245        0.74331
C         -2.24264       -0.46358       -0.62099
N         -1.80904       -1.86612       -0.59980
C         -1.47199       -2.18960        0.78825
C         -1.12877       -0.87134        2.93872
C         -0.19050        0.24538        3.35952
N          0.91921        0.12636        2.43695
C          2.18965        0.46269        2.84727
O          2.43233        1.05074        3.89501
O          3.14590        0.04774        1.97547
C          4.47745        0.38221        2.36597
H          0.58885        1.09425       -0.11625
H          0.62465       -0.47932       -0.94562
H          2.05396        0.13451       -0.15335
H          1.08890       -1.58410        1.29592
H         -1.49261        1.13821        0.66958
H         -2.85040        0.22286        1.31218
H         -1.72668        0.07786       -1.42102
H         -3.31675       -0.40128       -0.82460
H         -0.98439       -1.97290       -1.18967
H         -2.37797       -2.54890        1.29193
H         -0.73106       -2.99408        0.83618
H         -2.15153       -0.70531        3.29049
H         -0.78087       -1.82431        3.35849
H          0.12799        0.14974        4.40184
H         -0.64471        1.23138        3.21366
H          4.59336        1.46757        2.44838
H          4.73582       -0.10970        3.30890
H          5.15814        0.02121        1.59000

--Link1--
%chk=JID_4992.chk
%mem=8GB
%nprocshared=4
# B3LYP/6-311++G(d,p) empiricaldispersion=gd3bj scf=xqc pop=npa geom=check

CID_83847862_JID_4992_Energie_neutraal

0 1

--Link1--
%chk=JID_4992.chk
%mem=8GB
%nprocshared=4
# B3LYP/6-311++G(d,p) empiricaldispersion=gd3bj scf=xqc pop=npa geom=check

CID_83847862_JID_4992_Energie_kation

1 2

--Link1--
%chk=JID_4992.chk
%mem=8GB
%nprocshared=4
# B3LYP/6-311++G(d,p) empiricaldispersion=gd3bj scf=xqc pop=npa geom=check

CID_83847862_JID_4992_Energie_anion

-1 2
