%chk=JID_4889.chk
%mem=8GB
%nprocshared=4
# opt freq B3LYP/6-31G(d) empiricaldispersion=gd3bj scf=xqc

CID_10104284_JID_4889_neutraal

0 1
C          0.92062        0.01118        0.05979
C          0.85764        0.02788       -1.46001
C          1.12132       -1.33812       -2.09896
C          0.18570       -2.46589       -1.65285
C         -1.30762       -2.20321       -1.86861
C         -1.73682       -2.00163       -3.32482
C         -1.44544       -3.16912       -4.26915
C         -1.96541       -4.56630       -3.89714
N         -3.49471       -4.80368       -4.00275
C         -4.07355       -4.11646       -5.23920
C         -3.70875       -6.31262       -4.18857
C         -4.28554       -4.31439       -2.75748
C         -4.21355       -5.21667       -1.50820
O         -2.87934       -5.48561       -1.10812
H          0.10792       -0.58059        0.49075
H          0.82940        1.03004        0.44988
H          1.87286       -0.40056        0.40877
H         -0.11478        0.41719       -1.78087
H          1.60982        0.73351       -1.83325
H          1.07347       -1.23096       -3.18900
H          2.15188       -1.63913       -1.87133
H          0.47664       -3.38688       -2.17149
H          0.35024       -2.66841       -0.58760
H         -1.86479       -3.03770       -1.43348
H         -1.61208       -1.32164       -1.29271
H         -2.80344       -1.75851       -3.35611
H         -1.23633       -1.11003       -3.72268
H         -1.77690       -2.89492       -5.27705
H         -0.35425       -3.25342       -4.36077
H         -1.51300       -5.26660       -4.61160
H         -1.62746       -4.87216       -2.90807
H         -3.47075       -4.39638       -6.10813
H         -5.10562       -4.45609       -5.37289
H         -4.06155       -3.03523       -5.07998
H         -3.18189       -6.84813       -3.39457
H         -4.78326       -6.51608       -4.15524
H         -3.30175       -6.60271       -5.16251
H         -3.92480       -3.31518       -2.52182
H         -5.33562       -4.23075       -3.06207
H         -4.72270       -4.71103       -0.68049
H         -4.72598       -6.16838       -1.67821
H         -2.91332       -5.91227       -0.23056

--Link1--
%chk=JID_4889.chk
%mem=8GB
%nprocshared=4
# B3LYP/6-311++G(d,p) empiricaldispersion=gd3bj scf=xqc pop=npa geom=check

CID_10104284_JID_4889_Energie_neutraal

0 1

--Link1--
%chk=JID_4889.chk
%mem=8GB
%nprocshared=4
# B3LYP/6-311++G(d,p) empiricaldispersion=gd3bj scf=xqc pop=npa geom=check

CID_10104284_JID_4889_Energie_kation

1 2

--Link1--
%chk=JID_4889.chk
%mem=8GB
%nprocshared=4
# B3LYP/6-311++G(d,p) empiricaldispersion=gd3bj scf=xqc pop=npa geom=check

CID_10104284_JID_4889_Energie_anion

-1 2
