%chk=JID_4879.chk
%mem=8GB
%nprocshared=4
# opt freq B3LYP/6-31G(d) empiricaldispersion=gd3bj scf=xqc

CID_151678703_JID_4879_neutraal

0 1
C          0.94705       -0.04512       -0.07184
C          1.55267        1.34811        0.03197
C          2.34275        1.74938       -1.21017
N          1.47401        2.15477       -2.32148
C          1.13791        3.42683       -2.59039
N          0.34465        3.41728       -3.67383
C          0.19956        2.11623       -4.12673
C          0.92362        1.32195       -3.28251
C         -0.23056        4.62394       -4.29208
C         -1.55072        5.06217       -3.65282
S         -1.31232        5.64913       -1.93580
C         -2.07715        4.27893       -1.00225
C         -3.54993        4.51319       -0.67093
C         -4.48568        4.43373       -1.86689
H          0.18996       -0.09356       -0.85937
H          0.46219       -0.31489        0.87187
H          1.71681       -0.79404       -0.28306
H          0.75847        2.07770        0.22791
H          2.22781        1.36211        0.89552
H          2.98435        2.60613       -0.97133
H          2.99720        0.93925       -1.55035
H          1.45276        4.30228       -2.03219
H         -0.39501        1.92338       -5.00292
H          1.11724        0.26423       -3.23757
H          0.51930        5.42292       -4.24585
H         -0.39724        4.40671       -5.35404
H         -1.96493        5.89767       -4.22632
H         -2.27612        4.24486       -3.68599
H         -1.93060        3.32994       -1.52807
H         -1.52107        4.20511       -0.06116
H         -3.85874        3.74532        0.04930
H         -3.67997        5.47797       -0.16573
H         -4.36036        3.48660       -2.40107
H         -5.52626        4.49533       -1.53198
H         -4.31693        5.25601       -2.56784

--Link1--
%chk=JID_4879.chk
%mem=8GB
%nprocshared=4
# B3LYP/6-311++G(d,p) empiricaldispersion=gd3bj scf=xqc pop=npa geom=check

CID_151678703_JID_4879_Energie_neutraal

0 1

--Link1--
%chk=JID_4879.chk
%mem=8GB
%nprocshared=4
# B3LYP/6-311++G(d,p) empiricaldispersion=gd3bj scf=xqc pop=npa geom=check

CID_151678703_JID_4879_Energie_kation

1 2

--Link1--
%chk=JID_4879.chk
%mem=8GB
%nprocshared=4
# B3LYP/6-311++G(d,p) empiricaldispersion=gd3bj scf=xqc pop=npa geom=check

CID_151678703_JID_4879_Energie_anion

-1 2
