%chk=JID_6368.chk
%mem=8GB
%nprocshared=4
# opt freq B3LYP/6-31G(d) empiricaldispersion=gd3bj scf=xqc

CID_90507319_JID_6368_neutraal

0 1
C          0.99508       -0.08806       -0.04713
C          0.46556        0.32412       -1.40952
C          0.48942       -0.76809       -2.49087
N         -0.51306       -1.82697       -2.54126
C         -0.12623       -3.13601       -2.01619
C         -0.36715       -3.35383       -0.51320
N         -1.72188       -2.96132       -0.06472
C         -2.19395       -1.67032       -0.62968
C         -1.87652       -1.49913       -2.13126
C         -2.11977       -3.28343        1.21444
C         -3.41425       -3.20799        1.70021
N         -3.34968       -3.60718        3.00416
N         -2.13311       -3.97200        3.40959
C         -1.36478       -3.79761        2.32494
C          0.07925       -4.12177        2.45361
C         -4.72078       -2.84403        1.10391
H          0.29701       -0.71690        0.50243
H          1.16729        0.80260        0.56683
H          1.94777       -0.61902       -0.13788
H         -0.53173        0.76450       -1.30912
H          1.10623        1.14114       -1.76840
H          0.37941       -0.23398       -3.44499
H          1.49907       -1.19614       -2.54360
H         -0.71204       -3.88976       -2.56009
H          0.91939       -3.36280       -2.25843
H          0.39418       -2.80452        0.04430
H         -0.21883       -4.42307       -0.32230
H         -1.77080       -0.84362       -0.05296
H         -3.27834       -1.57823       -0.54413
H         -2.15287       -0.49053       -2.46140
H         -2.54781       -2.16930       -2.68613
H         -4.11026       -3.67088        3.67250
H          0.35354       -4.94993        1.79401
H          0.69819       -3.25108        2.21991
H          0.33049       -4.42947        3.47513
H         -4.85075       -1.75704        1.10206
H         -4.80147       -3.21434        0.07744
H         -5.55241       -3.27497        1.67195

--Link1--
%chk=JID_6368.chk
%mem=8GB
%nprocshared=4
# B3LYP/6-311++G(d,p) empiricaldispersion=gd3bj scf=xqc pop=npa geom=check

CID_90507319_JID_6368_Energie_neutraal

0 1

--Link1--
%chk=JID_6368.chk
%mem=8GB
%nprocshared=4
# B3LYP/6-311++G(d,p) empiricaldispersion=gd3bj scf=xqc pop=npa geom=check

CID_90507319_JID_6368_Energie_kation

1 2

--Link1--
%chk=JID_6368.chk
%mem=8GB
%nprocshared=4
# B3LYP/6-311++G(d,p) empiricaldispersion=gd3bj scf=xqc pop=npa geom=check

CID_90507319_JID_6368_Energie_anion

-1 2
