%chk=JID_4230.chk
%mem=8GB
%nprocshared=4
# opt freq B3LYP/6-31G(d) empiricaldispersion=gd3bj scf=xqc

CID_129395510_JID_4230_neutraal

0 1
C         -1.50500        0.02200       -0.20100
C         -0.68119        1.07715        0.51765
C          0.70733        1.20388       -0.09122
N          1.43479       -0.05557       -0.08284
C          0.74922       -1.23948       -0.65565
C         -0.75808       -1.30826       -0.25096
C          1.45300       -2.44813        0.08774
O          0.91188       -3.73304       -0.22986
C          0.94788       -1.29808       -2.19468
C          1.76580       -2.26604       -2.81174
C          1.94924       -2.30895       -4.19976
C          1.32287       -1.37877       -5.01741
C          0.51401       -0.40744       -4.44460
C          0.33232       -0.37024       -3.05640
H         -2.45780       -0.11707        0.32413
H         -1.76935        0.36381       -1.20480
H         -1.19637        2.04330        0.47060
H         -0.59598        0.81508        1.58002
H          0.64818        1.61974       -1.10118
H          1.27899        1.93111        0.49692
H          2.33567        0.06018       -0.54889
H         -0.83695       -1.72711        0.76256
H         -1.30157       -2.00081       -0.90650
H          2.52843       -2.47670       -0.12631
H          1.36608       -2.32954        1.17611
H         -0.00532       -3.75583        0.08964
H          2.27861       -3.03096       -2.23393
H          2.58245       -3.07778       -4.63548
H          1.46402       -1.41170       -6.09378
H          0.02034        0.32828       -5.07436
H         -0.30241        0.41800       -2.67188

--Link1--
%chk=JID_4230.chk
%mem=8GB
%nprocshared=4
# B3LYP/6-311++G(d,p) empiricaldispersion=gd3bj scf=xqc pop=npa geom=check

CID_129395510_JID_4230_Energie_neutraal

0 1

--Link1--
%chk=JID_4230.chk
%mem=8GB
%nprocshared=4
# B3LYP/6-311++G(d,p) empiricaldispersion=gd3bj scf=xqc pop=npa geom=check

CID_129395510_JID_4230_Energie_kation

1 2

--Link1--
%chk=JID_4230.chk
%mem=8GB
%nprocshared=4
# B3LYP/6-311++G(d,p) empiricaldispersion=gd3bj scf=xqc pop=npa geom=check

CID_129395510_JID_4230_Energie_anion

-1 2
