%chk=JID_4715.chk
%mem=8GB
%nprocshared=4
# opt freq B3LYP/6-31G(d) empiricaldispersion=gd3bj scf=xqc

CID_62131647_JID_4715_neutraal

0 1
C          1.08770        0.04588        0.01426
N          0.65454        1.19788       -0.76757
C         -0.78863        1.17216       -1.08261
C         -1.21250        0.01381       -1.99856
C         -0.68043        0.17966       -3.42151
N         -1.05904        1.48103       -4.00256
C         -0.63056        2.61779       -3.17138
C         -1.18241        2.50217       -1.74873
C         -2.30088        1.55088       -4.55912
N         -3.35628        0.81988       -4.27081
C         -4.35801        1.25252       -5.09803
C         -3.90472        2.24275       -5.93370
N         -2.58594        2.40479       -5.60205
C         -1.65755        3.25247       -6.30716
H          1.05626       -0.87758       -0.57028
H          0.48911       -0.07627        0.92255
H          2.12914        0.19114        0.31933
H          0.85510        2.03990       -0.22638
H         -1.34300        1.09608       -0.13813
H         -0.89453       -0.95367       -1.59628
H         -2.30889       -0.02564       -2.01767
H          0.41421        0.10473       -3.42019
H         -1.03570       -0.64430       -4.05371
H         -0.94904        3.57326       -3.60301
H          0.46579        2.64702       -3.15269
H         -2.27773        2.57402       -1.77552
H         -0.83471        3.35223       -1.14865
H         -5.34832        0.81926       -5.05503
H         -4.38436        2.80516       -6.72157
H         -2.01082        3.39584       -7.33212
H         -1.61188        4.21530       -5.79322
H         -0.67283        2.77964       -6.33321

--Link1--
%chk=JID_4715.chk
%mem=8GB
%nprocshared=4
# B3LYP/6-311++G(d,p) empiricaldispersion=gd3bj scf=xqc pop=npa geom=check

CID_62131647_JID_4715_Energie_neutraal

0 1

--Link1--
%chk=JID_4715.chk
%mem=8GB
%nprocshared=4
# B3LYP/6-311++G(d,p) empiricaldispersion=gd3bj scf=xqc pop=npa geom=check

CID_62131647_JID_4715_Energie_kation

1 2

--Link1--
%chk=JID_4715.chk
%mem=8GB
%nprocshared=4
# B3LYP/6-311++G(d,p) empiricaldispersion=gd3bj scf=xqc pop=npa geom=check

CID_62131647_JID_4715_Energie_anion

-1 2
