%chk=JID_10513.chk
%mem=8GB
%nprocshared=4
# opt freq B3LYP/6-31G(d) empiricaldispersion=gd3bj scf=xqc

CID_88736932_JID_10513_neutraal

0 1
C          1.06344        0.05030       -0.05869
C          0.84305        0.47125        1.38723
C          2.03468        1.21845        1.98980
C          2.23128        2.65089        1.47933
C          1.12842        3.65226        1.85268
C          0.92287        3.79273        3.36418
C          0.06527        4.99764        3.77198
C         -1.32283        5.08885        3.12792
C         -2.21195        3.87216        3.37208
O         -2.48430        3.74504        4.75726
C         -2.92903        2.48496        5.23107
C         -4.04803        1.75147        4.45639
C         -3.82891        1.17721        3.04680
C         -2.66382        0.21108        2.84001
C         -2.75444       -1.10514        3.61251
C         -3.85908       -2.05810        3.14560
C         -3.82638       -2.44071        1.66067
C         -2.49497       -2.99110        1.14142
C         -2.04758       -4.26325        1.84319
N         -1.78027        1.67083        5.57612
H          1.16707        0.91937       -0.71485
H          0.21011       -0.53697       -0.41295
H          1.96253       -0.56623       -0.15625
H         -0.06585        1.07559        1.45631
H          0.66636       -0.43365        1.98135
H          1.92809        1.23146        3.08040
H          2.95044        0.64889        1.78696
H          3.18292        3.02496        1.87827
H          2.34391        2.64242        0.38910
H          1.40562        4.62877        1.43634
H          0.18923        3.36371        1.36900
H          0.47557        2.87742        3.76364
H          1.89943        3.89693        3.85348
H         -0.04417        4.98900        4.86365
H          0.61440        5.91618        3.52917
H         -1.81993        5.97818        3.53540
H         -1.21923        5.24913        2.04889
H         -3.15948        4.02914        2.84752
H         -1.72325        2.98006        2.97688
H         -3.39325        2.72535        6.19631
H         -4.40847        0.93081        5.09148
H         -4.88974        2.45287        4.37306
H         -4.75752        0.67328        2.74899
H         -3.72682        1.99478        2.32743
H         -2.58010        0.00329        1.76726
H         -1.72358        0.70111        3.09658
H         -1.78727       -1.61590        3.53358
H         -2.89470       -0.90391        4.68039
H         -3.80353       -2.97111        3.75095
H         -4.83758       -1.61545        3.36744
H         -4.61180       -3.18579        1.48118
H         -4.10164       -1.56785        1.05655
H         -2.60465       -3.20417        0.07109
H         -1.70744       -2.23407        1.22312
H         -2.81537       -5.04001        1.77440
H         -1.13446       -4.64701        1.37665
H         -1.82938       -4.08431        2.89995
H         -1.15187        1.65560        4.77961
H         -1.26276        2.18905        6.28568

--Link1--
%chk=JID_10513.chk
%mem=8GB
%nprocshared=4
# B3LYP/6-311++G(d,p) empiricaldispersion=gd3bj scf=xqc pop=npa geom=check

CID_88736932_JID_10513_Energie_neutraal

0 1

--Link1--
%chk=JID_10513.chk
%mem=8GB
%nprocshared=4
# B3LYP/6-311++G(d,p) empiricaldispersion=gd3bj scf=xqc pop=npa geom=check

CID_88736932_JID_10513_Energie_kation

1 2

--Link1--
%chk=JID_10513.chk
%mem=8GB
%nprocshared=4
# B3LYP/6-311++G(d,p) empiricaldispersion=gd3bj scf=xqc pop=npa geom=check

CID_88736932_JID_10513_Energie_anion

-1 2
