%chk=JID_8291.chk
%mem=8GB
%nprocshared=4
# opt freq B3LYP/6-31G(d) empiricaldispersion=gd3bj scf=xqc

CID_62168700_JID_8291_neutraal

0 1
C          0.96901        0.08402       -0.04450
C         -0.19822        0.35517        0.88712
N          0.23130        0.56090        2.25689
C          0.48970        1.75733        2.86220
C          0.85822        1.46765        4.15666
C          0.75277        0.06155        4.23609
N          0.39175       -0.49382        3.07477
N          1.18354        2.44887        5.07222
C          1.60584        2.33973        6.37518
O          1.54097        3.31002        7.12851
C          2.19223        1.09269        6.89425
C          3.26227        0.48163        6.24037
C          3.80361       -0.67593        6.78304
N          3.34508       -1.18838        7.94371
C          2.33535       -0.55276        8.57967
C          1.72764        0.58725        8.10143
N          4.88069       -1.27804        6.11106
C          5.35938       -2.50612        6.72540
H          1.67534        0.92100       -0.04532
H          0.61212       -0.06341       -1.06840
H          1.51687       -0.81423        0.25944
H         -0.74106        1.25249        0.57070
H         -0.90379       -0.48295        0.88179
H          0.39758        2.69112        2.32605
H          0.90490       -0.59647        5.08043
H          0.96949        3.40232        4.80353
H          3.67449        0.90479        5.33075
H          2.02590       -1.00289        9.51865
H          0.93013        1.07250        8.65256
H          4.63129       -1.41719        5.13573
H          4.58059       -3.27646        6.74705
H          6.19416       -2.89650        6.13441
H          5.73319       -2.32938        7.73991

--Link1--
%chk=JID_8291.chk
%mem=8GB
%nprocshared=4
# B3LYP/6-311++G(d,p) empiricaldispersion=gd3bj scf=xqc pop=npa geom=check

CID_62168700_JID_8291_Energie_neutraal

0 1

--Link1--
%chk=JID_8291.chk
%mem=8GB
%nprocshared=4
# B3LYP/6-311++G(d,p) empiricaldispersion=gd3bj scf=xqc pop=npa geom=check

CID_62168700_JID_8291_Energie_kation

1 2

--Link1--
%chk=JID_8291.chk
%mem=8GB
%nprocshared=4
# B3LYP/6-311++G(d,p) empiricaldispersion=gd3bj scf=xqc pop=npa geom=check

CID_62168700_JID_8291_Energie_anion

-1 2
