%chk=JID_9462.chk
%mem=8GB
%nprocshared=4
# opt freq B3LYP/6-31G(d) empiricaldispersion=gd3bj scf=xqc

CID_105834094_JID_9462_neutraal

0 1
C          1.00027        0.07432        0.06690
C          0.36830        0.40857        1.42456
C          0.55039        1.90798        1.69084
C         -1.11455       -0.06572        1.46854
C         -1.26293       -1.59972        1.51055
C         -0.62447       -2.23102        2.71653
O         -0.48742       -1.72975        3.82006
O         -0.23067       -3.49766        2.48464
N         -1.86986        0.53424        2.56686
C         -2.66304        1.60215        2.70545
O         -3.03877        1.90161        3.84088
N         -3.08294        2.37170        1.69493
C         -2.98613        2.29645        0.25340
C         -3.96528        1.30224       -0.36628
C         -3.94040        1.67104       -1.84505
C         -3.72230        3.19132       -1.86701
C         -3.37648        3.60735       -0.43047
O         -4.78153        3.95324       -2.43465
C         -6.08680        3.72349       -1.92454
H          0.45546        0.55383       -0.75355
H          1.01464       -1.00391       -0.11560
H          2.03918        0.41988        0.02680
H          0.93992       -0.11343        2.20140
H          0.01813        2.51924        0.95734
H          0.20327        2.18170        2.69186
H          1.61079        2.18005        1.63850
H         -1.58362        0.23102        0.53575
H         -2.32445       -1.87495        1.52417
H         -0.82244       -2.03895        0.60932
H          0.12678       -3.80211        3.34598
H         -1.63846        0.16512        3.48755
H         -3.70352        3.08325        2.06261
H         -1.95767        2.06911       -0.03286
H         -3.68888        0.25776       -0.19914
H         -4.97375        1.44355        0.04244
H         -4.83047        1.32696       -2.37604
H         -3.07629        1.18045       -2.31170
H         -2.85003        3.39427       -2.50078
H         -4.21486        4.09655        0.07552
H         -2.54883        4.32579       -0.41219
H         -6.46582        2.75095       -2.24773
H         -6.12411        3.79644       -0.83555
H         -6.74790        4.48992       -2.33906

--Link1--
%chk=JID_9462.chk
%mem=8GB
%nprocshared=4
# B3LYP/6-311++G(d,p) empiricaldispersion=gd3bj scf=xqc pop=npa geom=check

CID_105834094_JID_9462_Energie_neutraal

0 1

--Link1--
%chk=JID_9462.chk
%mem=8GB
%nprocshared=4
# B3LYP/6-311++G(d,p) empiricaldispersion=gd3bj scf=xqc pop=npa geom=check

CID_105834094_JID_9462_Energie_kation

1 2

--Link1--
%chk=JID_9462.chk
%mem=8GB
%nprocshared=4
# B3LYP/6-311++G(d,p) empiricaldispersion=gd3bj scf=xqc pop=npa geom=check

CID_105834094_JID_9462_Energie_anion

-1 2
