%chk=JID_10702.chk
%mem=8GB
%nprocshared=4
# opt freq B3LYP/6-31G(d) empiricaldispersion=gd3bj scf=xqc

CID_80643467_JID_10702_neutraal

0 1
C          1.08912        0.01874        0.04131
C          0.82512        0.25793        1.51866
O          1.84012        1.01877        2.16509
C          3.15207        0.45505        2.20261
C          3.28091       -0.83186        3.04302
N          3.13898       -2.03416        2.21218
C          3.35536       -3.28608        2.94086
C          2.37686       -3.66801        4.06874
N          0.97583       -3.32512        3.88663
C          0.24913       -2.64179        4.83427
C         -1.01737       -2.44019        4.34239
C         -1.07540       -3.03174        3.05452
C          0.17147       -3.61385        2.80035
C          0.41688       -4.30908        1.60615
C         -0.60021       -4.36333        0.64117
C         -1.83551       -3.76221        0.86063
C         -2.08571       -3.11920        2.07748
O         -2.88964       -3.74178       -0.01048
C         -2.64644       -4.01376       -1.38976
C         -2.02173       -2.81658       -2.08773
H          1.30769        0.96283       -0.46786
H          0.21873       -0.44532       -0.43211
H          1.94789       -0.63933       -0.11588
H         -0.10023        0.83675        1.61381
H          0.65325       -0.67671        2.05449
H          3.54891        0.33237        1.18874
H          3.77873        1.22037        2.67565
H          4.28281       -0.84439        3.48764
H          2.54356       -0.82033        3.85174
H          2.20571       -2.04871        1.79985
H          3.34505       -4.08763        2.19374
H          4.37661       -3.30196        3.34257
H          2.41220       -4.74967        4.24443
H          2.71007       -3.18023        4.99329
H          0.69238       -2.34044        5.77457
H         -1.81621       -1.91592        4.85006
H          1.36852       -4.78947        1.40815
H         -0.38411       -4.89686       -0.27821
H         -3.05664       -2.66703        2.25958
H         -2.07145       -4.93297       -1.53914
H         -3.62751       -4.19939       -1.84182
H         -1.02245       -2.60181       -1.69720
H         -1.94008       -2.99619       -3.16353
H         -2.62699       -1.91841       -1.92532

--Link1--
%chk=JID_10702.chk
%mem=8GB
%nprocshared=4
# B3LYP/6-311++G(d,p) empiricaldispersion=gd3bj scf=xqc pop=npa geom=check

CID_80643467_JID_10702_Energie_neutraal

0 1

--Link1--
%chk=JID_10702.chk
%mem=8GB
%nprocshared=4
# B3LYP/6-311++G(d,p) empiricaldispersion=gd3bj scf=xqc pop=npa geom=check

CID_80643467_JID_10702_Energie_kation

1 2

--Link1--
%chk=JID_10702.chk
%mem=8GB
%nprocshared=4
# B3LYP/6-311++G(d,p) empiricaldispersion=gd3bj scf=xqc pop=npa geom=check

CID_80643467_JID_10702_Energie_anion

-1 2
