%chk=JID_7863.chk
%mem=8GB
%nprocshared=4
# opt freq B3LYP/6-31G(d) empiricaldispersion=gd3bj scf=xqc

CID_115255034_JID_7863_neutraal

0 1
C          0.90760        0.00397       -0.03804
C          0.37827       -1.40059        0.21619
C          0.90486       -2.04110        1.52205
C          0.64687       -1.18098        2.78320
N         -0.77550       -0.92540        3.02403
C         -0.96967       -0.16592        4.25265
C          0.34010       -3.46839        1.73259
N          0.77969       -4.38561        0.67685
C          0.34474       -5.76872        0.90569
C         -1.11446       -6.09933        0.64765
C         -1.99937       -5.23319       -0.01748
C         -3.33085       -5.59491       -0.24273
C         -3.80202       -6.83153        0.18569
C         -2.93806       -7.71729        0.82511
C         -1.59920       -7.36546        1.03027
O         -0.72780       -8.21794        1.66327
C         -0.69873       -9.51803        1.07703
H          0.51600        0.72133        0.68878
H          0.60052        0.34514       -1.03213
H          2.00107        0.02569        0.00380
H         -0.71787       -1.38060        0.21329
H          0.67740       -2.01610       -0.63969
H          1.99700       -2.12813        1.42695
H          1.07524       -1.70222        3.64912
H          1.18800       -0.23136        2.69503
H         -1.16491       -0.39595        2.24480
H         -0.47383        0.80903        4.20428
H         -2.03903        0.00757        4.40792
H         -0.59607       -0.71628        5.12211
H          0.69913       -3.84506        2.69849
H         -0.75325       -3.42749        1.78320
H          0.46867       -4.08060       -0.23966
H          0.93842       -6.39999        0.23273
H          0.61653       -6.05986        1.92807
H         -1.67516       -4.25545       -0.36113
H         -4.00173       -4.90220       -0.74483
H         -4.84188       -7.10374        0.02662
H         -3.32295       -8.67006        1.17425
H         -0.67020       -9.46917       -0.01763
H          0.21644      -10.01433        1.41400
H         -1.54849      -10.11796        1.41650

--Link1--
%chk=JID_7863.chk
%mem=8GB
%nprocshared=4
# B3LYP/6-311++G(d,p) empiricaldispersion=gd3bj scf=xqc pop=npa geom=check

CID_115255034_JID_7863_Energie_neutraal

0 1

--Link1--
%chk=JID_7863.chk
%mem=8GB
%nprocshared=4
# B3LYP/6-311++G(d,p) empiricaldispersion=gd3bj scf=xqc pop=npa geom=check

CID_115255034_JID_7863_Energie_kation

1 2

--Link1--
%chk=JID_7863.chk
%mem=8GB
%nprocshared=4
# B3LYP/6-311++G(d,p) empiricaldispersion=gd3bj scf=xqc pop=npa geom=check

CID_115255034_JID_7863_Energie_anion

-1 2
