%chk=JID_10277.chk
%mem=8GB
%nprocshared=4
# opt freq B3LYP/6-31G(d) empiricaldispersion=gd3bj scf=xqc

CID_81898060_JID_10277_neutraal

0 1
C          1.06819        0.07310        0.00234
C          0.64361        0.59322       -1.36193
C          0.75600       -0.44929       -2.47725
C         -0.15107       -1.68212       -2.35598
N         -1.53825       -1.37045       -2.73916
C         -2.24130       -2.40768       -3.53132
C         -2.30477       -3.79564       -2.86483
O         -3.18399       -3.83013       -1.74567
C         -2.34229       -0.88368       -1.69716
N         -2.22756       -1.41552       -0.46195
C         -3.03063       -0.92472        0.51536
C         -3.98382        0.07006        0.32880
C         -4.10612        0.58536       -0.96142
C         -3.28366        0.10365       -1.97862
C         -4.86783        0.55607        1.45467
C         -5.92475       -0.50837        1.77890
N         -4.12341        0.86646        2.68430
C         -3.20986        2.00746        2.57507
C         -3.86775        3.37658        2.36674
C         -4.85057        3.75615        3.46460
H          0.40315       -0.71612        0.36177
H          1.04545        0.88496        0.73649
H          2.08769       -0.32411       -0.02969
H         -0.37082        0.99805       -1.30501
H          1.29345        1.43837       -1.62100
H          0.56202        0.04669       -3.43694
H          1.79715       -0.79513       -2.51494
H          0.24656       -2.41268       -3.07348
H         -0.06710       -2.16412       -1.37572
H         -3.25655       -2.07218       -3.77914
H         -1.70909       -2.50866       -4.48522
H         -2.68417       -4.52228       -3.59048
H         -1.31982       -4.14192       -2.53810
H         -2.84865       -3.15168       -1.11987
H         -2.87865       -1.37310        1.49468
H         -4.83325        1.36051       -1.18634
H         -3.36278        0.50479       -2.98346
H         -5.41543        1.44874        1.12976
H         -5.47380       -1.43642        2.14964
H         -6.62299       -0.14671        2.54244
H         -6.51194       -0.75979        0.88796
H         -4.78114        1.03428        3.44407
H         -2.62947        2.04422        3.50527
H         -2.47284        1.83617        1.78206
H         -3.07507        4.13426        2.33544
H         -4.37071        3.42029        1.39457
H         -4.37860        3.70225        4.45071
H         -5.20379        4.78136        3.31398
H         -5.72672        3.10077        3.46257

--Link1--
%chk=JID_10277.chk
%mem=8GB
%nprocshared=4
# B3LYP/6-311++G(d,p) empiricaldispersion=gd3bj scf=xqc pop=npa geom=check

CID_81898060_JID_10277_Energie_neutraal

0 1

--Link1--
%chk=JID_10277.chk
%mem=8GB
%nprocshared=4
# B3LYP/6-311++G(d,p) empiricaldispersion=gd3bj scf=xqc pop=npa geom=check

CID_81898060_JID_10277_Energie_kation

1 2

--Link1--
%chk=JID_10277.chk
%mem=8GB
%nprocshared=4
# B3LYP/6-311++G(d,p) empiricaldispersion=gd3bj scf=xqc pop=npa geom=check

CID_81898060_JID_10277_Energie_anion

-1 2
