%chk=JID_10420.chk
%mem=8GB
%nprocshared=4
# opt freq B3LYP/6-31G(d) empiricaldispersion=gd3bj scf=xqc

CID_104381101_JID_10420_neutraal

0 1
C          1.07652       -0.04687       -0.04412
C          0.56253       -0.48758        1.33665
C          1.15237        0.43782        2.41572
C         -0.97181       -0.34967        1.36809
C          0.93944       -1.93152        1.56182
N          0.31461       -2.99552        1.10162
C          1.05295       -4.07027        1.56476
N          2.13081       -3.68576        2.27518
N          2.03660       -2.35206        2.25730
C          0.74609       -5.49531        1.29255
O          1.51812       -6.41112        1.59085
N         -0.42463       -5.86286        0.66779
C         -1.61241       -5.08657        0.35738
C         -2.25363       -5.66317       -0.90150
O         -3.01385       -6.63141       -0.85139
N         -1.90215       -5.15756       -2.12107
C         -0.75309       -4.32066       -2.44507
C          0.50067       -5.14898       -2.74231
O          0.31012       -5.89247       -3.95117
C          0.24916       -7.29510       -3.72351
H          0.80690        0.99428       -0.25452
H          0.65673       -0.66849       -0.84415
H          2.16817       -0.12863       -0.10691
H          0.82577        1.47390        2.26860
H          0.83945        0.13009        3.42043
H          2.24835        0.43852        2.39475
H         -1.44747       -0.95627        0.58814
H         -1.37965       -0.67706        2.33190
H         -1.28030        0.69009        1.20995
H          2.74588       -1.80437        2.73140
H         -0.52541       -6.87028        0.62096
H         -2.31304       -5.20713        1.19024
H         -1.43734       -4.02351        0.23638
H         -2.31691       -5.66262       -2.89622
H         -1.03912       -3.74717       -3.33310
H         -0.55433       -3.62020       -1.63202
H          1.34156       -4.46946       -2.91576
H          0.76548       -5.80108       -1.90281
H          1.19711       -7.65437       -3.31164
H         -0.57464       -7.54429       -3.04853
H          0.07608       -7.79078       -4.68250

--Link1--
%chk=JID_10420.chk
%mem=8GB
%nprocshared=4
# B3LYP/6-311++G(d,p) empiricaldispersion=gd3bj scf=xqc pop=npa geom=check

CID_104381101_JID_10420_Energie_neutraal

0 1

--Link1--
%chk=JID_10420.chk
%mem=8GB
%nprocshared=4
# B3LYP/6-311++G(d,p) empiricaldispersion=gd3bj scf=xqc pop=npa geom=check

CID_104381101_JID_10420_Energie_kation

1 2

--Link1--
%chk=JID_10420.chk
%mem=8GB
%nprocshared=4
# B3LYP/6-311++G(d,p) empiricaldispersion=gd3bj scf=xqc pop=npa geom=check

CID_104381101_JID_10420_Energie_anion

-1 2
