%chk=JID_8240.chk
%mem=8GB
%nprocshared=4
# opt freq B3LYP/6-31G(d) empiricaldispersion=gd3bj scf=xqc

CID_119226689_JID_8240_neutraal

0 1
C          1.02610        0.08010        0.05387
C          0.96827        1.36761       -0.75067
O          1.71996        2.43539       -0.17709
C          3.12542        2.22160       -0.14273
C          3.82095        3.51858       -0.54326
C          3.65913        1.74273        1.22300
O          4.47719        0.82005        1.29173
N          3.29649        2.35865        2.38455
C          2.24129        3.32742        2.61077
C          0.97790        2.63548        2.97114
C          0.67035        1.49022        3.67573
C         -0.74651        1.32904        3.61313
C         -1.20979        2.42684        2.90892
O         -0.17057        3.21999        2.52775
C         -2.55023        2.87873        2.47738
C         -1.55738        0.25512        4.13685
O         -2.77100        0.15051        4.03160
O         -0.85262       -0.69998        4.78373
H          0.34333       -0.66344       -0.36813
H          0.75059        0.25332        1.09497
H          2.03267       -0.34795        0.05022
H          1.29727        1.19897       -1.78234
H         -0.07190        1.70719       -0.79754
H          3.40537        1.46060       -0.88341
H          3.57008        4.34548        0.12737
H          4.90932        3.40049       -0.54087
H          3.50452        3.82324       -1.54687
H          3.70441        1.92403        3.20105
H          2.10600        3.96853        1.73886
H          2.56164        3.95805        3.44643
H          1.37823        0.81686        4.13978
H         -2.57233        3.96541        2.34620
H         -2.81590        2.41392        1.52305
H         -3.31437        2.61957        3.21545
H         -1.54222       -1.34039        5.05310

--Link1--
%chk=JID_8240.chk
%mem=8GB
%nprocshared=4
# B3LYP/6-311++G(d,p) empiricaldispersion=gd3bj scf=xqc pop=npa geom=check

CID_119226689_JID_8240_Energie_neutraal

0 1

--Link1--
%chk=JID_8240.chk
%mem=8GB
%nprocshared=4
# B3LYP/6-311++G(d,p) empiricaldispersion=gd3bj scf=xqc pop=npa geom=check

CID_119226689_JID_8240_Energie_kation

1 2

--Link1--
%chk=JID_8240.chk
%mem=8GB
%nprocshared=4
# B3LYP/6-311++G(d,p) empiricaldispersion=gd3bj scf=xqc pop=npa geom=check

CID_119226689_JID_8240_Energie_anion

-1 2
