%chk=JID_4628.chk
%mem=8GB
%nprocshared=4
# opt freq B3LYP/6-31G(d) empiricaldispersion=gd3bj scf=xqc

CID_147643358_JID_4628_neutraal

0 1
C          0.92986        0.00162        0.07126
C          0.25585        0.83973       -1.00479
N          0.70013        0.39228       -2.32444
C          0.07777        1.17658       -3.40580
C          0.76643        2.53620       -3.65496
N          2.21115        2.34514       -3.80749
C          3.10162        3.36866       -4.12405
C          4.18133        3.14230       -4.91377
C          5.12967        4.25654       -5.30272
C          4.54373        5.66703       -5.14511
C          3.54432        5.77258       -4.03276
C          2.89891        4.69449       -3.56422
N          4.43122        1.89707       -5.45822
C          5.23615        1.17394       -4.75248
H          0.68488       -1.05995       -0.04170
H          0.59407        0.32109        1.06308
H          2.01927        0.10880        0.03366
H         -0.83016        0.72612       -0.91259
H          0.50384        1.89413       -0.84184
H          1.71075        0.55400       -2.39350
H          0.16683        0.57839       -4.32089
H         -0.99559        1.31603       -3.23223
H          0.35242        2.98760       -4.56388
H          0.55810        3.20813       -2.81593
H          2.42633        1.55185       -4.42044
H          5.45450        4.12927       -6.34289
H          6.03020        4.16907       -4.68070
H          5.36376        6.37288       -4.96879
H          4.05652        5.97593       -6.07818
H          3.34675        6.75288       -3.61031
H          2.19728        4.80194       -2.74427
H          5.68650        1.50391       -3.79881
H          5.50166        0.16275       -5.09936

--Link1--
%chk=JID_4628.chk
%mem=8GB
%nprocshared=4
# B3LYP/6-311++G(d,p) empiricaldispersion=gd3bj scf=xqc pop=npa geom=check

CID_147643358_JID_4628_Energie_neutraal

0 1

--Link1--
%chk=JID_4628.chk
%mem=8GB
%nprocshared=4
# B3LYP/6-311++G(d,p) empiricaldispersion=gd3bj scf=xqc pop=npa geom=check

CID_147643358_JID_4628_Energie_kation

1 2

--Link1--
%chk=JID_4628.chk
%mem=8GB
%nprocshared=4
# B3LYP/6-311++G(d,p) empiricaldispersion=gd3bj scf=xqc pop=npa geom=check

CID_147643358_JID_4628_Energie_anion

-1 2
