%chk=JID_7408.chk
%mem=8GB
%nprocshared=4
# opt freq B3LYP/6-31G(d) empiricaldispersion=gd3bj scf=xqc

CID_63723853_JID_7408_neutraal

0 1
C          1.44200        0.04700       -0.00300
C          0.98311        1.29463       -0.40123
C         -0.31768        1.38939       -0.86189
N         -1.16434        0.34044       -0.94763
C         -0.71774       -0.86036       -0.53180
C          0.58297       -1.04801       -0.07321
N         -1.53058       -1.99261       -0.63211
C         -2.86244       -2.04358       -0.97060
O         -3.34116       -3.09080       -1.41206
C         -3.75126       -0.87102       -0.74686
N         -3.73853       -0.31547        0.49412
C         -4.59601        0.70934        0.69698
C         -5.47705        1.20206       -0.26460
C         -5.48812        0.57399       -1.51426
C         -4.61838       -0.48485       -1.76127
C         -6.39319        2.34857        0.04850
N         -7.48840        1.93288        0.91301
H          2.45745       -0.07510        0.36256
H          1.62095        2.16985       -0.35544
H         -0.72888        2.34021       -1.18795
H          0.93207       -2.02586        0.24018
H         -1.08613       -2.89644       -0.58983
H         -4.56411        1.13949        1.69520
H         -6.16962        0.90027       -2.29520
H         -4.61252       -0.99698       -2.71708
H         -5.82287        3.14860        0.53447
H         -6.79949        2.77275       -0.87713
H         -8.13966        2.70717        1.02783
H         -8.01060        1.18515        0.45715

--Link1--
%chk=JID_7408.chk
%mem=8GB
%nprocshared=4
# B3LYP/6-311++G(d,p) empiricaldispersion=gd3bj scf=xqc pop=npa geom=check

CID_63723853_JID_7408_Energie_neutraal

0 1

--Link1--
%chk=JID_7408.chk
%mem=8GB
%nprocshared=4
# B3LYP/6-311++G(d,p) empiricaldispersion=gd3bj scf=xqc pop=npa geom=check

CID_63723853_JID_7408_Energie_kation

1 2

--Link1--
%chk=JID_7408.chk
%mem=8GB
%nprocshared=4
# B3LYP/6-311++G(d,p) empiricaldispersion=gd3bj scf=xqc pop=npa geom=check

CID_63723853_JID_7408_Energie_anion

-1 2
