%chk=JID_7744.chk
%mem=8GB
%nprocshared=4
# opt freq B3LYP/6-31G(d) empiricaldispersion=gd3bj scf=xqc

CID_123763996_JID_7744_neutraal

0 1
C          1.02011       -0.07240       -0.06599
C          1.23557       -1.53289       -0.47123
C          1.39535       -2.63078        0.65799
C          0.36878       -2.26814        1.75350
C          0.89155       -4.01028        0.06514
C          1.19621       -4.33739       -1.39605
C          2.91528       -2.73838        1.27646
C          3.88794       -3.19914        0.13611
C          3.44428       -1.35333        1.68032
C          3.16454       -3.83686        2.42794
C          3.15308       -3.68814        4.00837
C          1.71148       -3.46313        4.57867
C          0.71545       -4.61069        4.41165
C          3.64036       -5.06101        4.62801
C          5.08478       -5.50646        4.43384
C          4.00468       -2.51017        4.57806
C          5.47949       -2.41449        4.20850
H          0.05657        0.06398        0.43477
H          0.99603        0.55155       -0.96662
H          1.79398        0.33141        0.58344
H          0.34319       -1.78057       -1.06200
H          2.06974       -1.57700       -1.17588
H         -0.60380       -2.01270        1.31343
H          0.16959       -3.11522        2.40311
H          0.67947       -1.41344        2.35849
H          1.23975       -4.84304        0.68014
H         -0.20444       -4.04637        0.14820
H          2.25093       -4.24820       -1.65195
H          0.89368       -5.36943       -1.60640
H          0.62615       -3.70026       -2.07847
H          3.80061       -2.60031       -0.77260
H          4.93497       -3.11220        0.45508
H          3.73186       -4.25171       -0.11958
H          2.80080       -0.85339        2.40598
H          4.45273       -1.40927        2.08993
H          3.55499       -0.70173        0.80838
H          2.54542       -4.70582        2.18984
H          4.17763       -4.20445        2.22630
H          1.77946       -3.27486        5.65964
H          1.29758       -2.54047        4.16812
H          0.95143       -5.44197        5.08367
H         -0.29155       -4.26848        4.67261
H          0.68553       -5.00019        3.39160
H          3.44656       -5.05440        5.70907
H          3.02030       -5.86670        4.21405
H          5.76390       -4.96514        5.09454
H          5.17722       -6.56400        4.70678
H          5.43023       -5.40907        3.40319
H          3.52323       -1.56360        4.31185
H          3.95412       -2.53531        5.67597
H          5.71042       -2.84436        3.23220
H          5.78763       -1.36276        4.19601
H          6.10646       -2.89934        4.96095

--Link1--
%chk=JID_7744.chk
%mem=8GB
%nprocshared=4
# B3LYP/6-311++G(d,p) empiricaldispersion=gd3bj scf=xqc pop=npa geom=check

CID_123763996_JID_7744_Energie_neutraal

0 1

--Link1--
%chk=JID_7744.chk
%mem=8GB
%nprocshared=4
# B3LYP/6-311++G(d,p) empiricaldispersion=gd3bj scf=xqc pop=npa geom=check

CID_123763996_JID_7744_Energie_kation

1 2

--Link1--
%chk=JID_7744.chk
%mem=8GB
%nprocshared=4
# B3LYP/6-311++G(d,p) empiricaldispersion=gd3bj scf=xqc pop=npa geom=check

CID_123763996_JID_7744_Energie_anion

-1 2
