%chk=JID_6141.chk
%mem=8GB
%nprocshared=4
# opt freq B3LYP/6-31G(d) empiricaldispersion=gd3bj scf=xqc

CID_64092418_JID_6141_neutraal

0 1
C          0.92809       -0.06704       -0.01829
C         -0.16146        0.48473       -0.93347
C         -0.45455       -0.50822       -2.06120
C         -1.42602        0.81629       -0.11312
N         -2.29967        1.75731       -0.83188
C         -3.57477        1.10973       -1.24164
C         -4.47103        0.36973       -0.20868
N         -4.74899        1.09315        1.02897
C         -2.45866        3.10287       -0.21628
C         -1.17412        3.75566        0.35991
C         -0.20618        4.26206       -0.69740
C         -0.84577        5.31223       -1.59074
C         -2.23580        4.94224       -2.11412
C         -3.13248        4.16410       -1.13514
O         -2.21698        4.46148       -3.46054
C         -1.68779        3.17057       -3.68619
H          0.59917       -0.98230        0.48559
H          1.19817        0.66545        0.74993
H          1.83492       -0.30061       -0.58630
H          0.24033        1.39067       -1.39195
H         -0.88231       -1.43819       -1.67069
H         -1.15550       -0.08798       -2.78815
H          0.46304       -0.76353       -2.60213
H         -1.93064       -0.13232        0.10324
H         -1.16282        1.18499        0.88202
H         -4.21035        1.81782       -1.77865
H         -3.32135        0.36777       -2.01043
H         -5.42693        0.14181       -0.69460
H         -4.02450       -0.59767        0.04595
H         -5.33668        0.51579        1.63007
H         -3.87343        1.22269        1.53202
H         -3.11813        2.98471        0.64863
H         -1.47887        4.60916        0.98264
H         -0.64159        3.09528        1.04918
H          0.17809        3.44086       -1.29980
H          0.66753        4.70277       -0.20172
H         -0.16866        5.54986       -2.41948
H         -0.94228        6.22836       -0.99246
H         -2.74536        5.90742       -2.24329
H         -4.00089        3.77201       -1.66872
H         -3.55216        4.91324       -0.44593
H         -0.71853        3.02827       -3.20926
H         -2.40036        2.40772       -3.37744
H         -1.54325        3.05393       -4.76457

--Link1--
%chk=JID_6141.chk
%mem=8GB
%nprocshared=4
# B3LYP/6-311++G(d,p) empiricaldispersion=gd3bj scf=xqc pop=npa geom=check

CID_64092418_JID_6141_Energie_neutraal

0 1

--Link1--
%chk=JID_6141.chk
%mem=8GB
%nprocshared=4
# B3LYP/6-311++G(d,p) empiricaldispersion=gd3bj scf=xqc pop=npa geom=check

CID_64092418_JID_6141_Energie_kation

1 2

--Link1--
%chk=JID_6141.chk
%mem=8GB
%nprocshared=4
# B3LYP/6-311++G(d,p) empiricaldispersion=gd3bj scf=xqc pop=npa geom=check

CID_64092418_JID_6141_Energie_anion

-1 2
