%chk=JID_10778.chk
%mem=8GB
%nprocshared=4
# opt freq B3LYP/6-31G(d) empiricaldispersion=gd3bj scf=xqc

CID_61562770_JID_10778_neutraal

0 1
C          1.08080        0.05819       -0.00925
C          0.71899        0.22530       -1.47772
N          1.19228       -0.93390       -2.22448
C          0.82574       -0.92765       -3.65639
C          1.49289        0.24459       -4.43901
C          2.99634        0.31741       -4.33472
C          3.90505       -0.27892       -5.37871
C          3.74922        1.21209       -5.28843
C          1.02319       -2.32992       -4.26001
C          0.90936       -3.47569       -3.44278
C          1.03303       -4.75951       -3.97609
C          1.25581       -4.93349       -5.34040
C          1.33924       -3.82571       -6.17540
C          1.20739       -2.53813       -5.63885
N          1.38107       -6.21942       -5.87051
C          1.29100       -7.36188       -5.10550
O          1.40788       -8.47581       -5.59899
C          1.03188       -7.16978       -3.58996
O          0.92801       -8.12627       -2.83351
N          0.92440       -5.87282       -3.13890
H          0.62755       -0.84630        0.41064
H          0.71846        0.91512        0.56779
H          2.16569       -0.00550        0.12790
H         -0.36889        0.31881       -1.56729
H          1.17486        1.15118       -1.84153
H          2.20205       -1.03183       -2.13398
H         -0.26036       -0.76711       -3.71908
H          1.18314        0.23050       -5.49006
H          1.09668        1.19317       -4.05447
H          3.34356        0.34517       -3.30820
H          4.84023       -0.71420       -5.04318
H          3.48268       -0.76903       -6.24649
H          3.20192        1.71362       -6.07869
H          4.58124        1.78682       -4.89641
H          0.71291       -3.35934       -2.37862
H          1.49430       -3.94178       -7.24456
H          1.24531       -1.70372       -6.33341
H          1.54482       -6.36074       -6.85761
H          0.75590       -5.75821       -2.14869

--Link1--
%chk=JID_10778.chk
%mem=8GB
%nprocshared=4
# B3LYP/6-311++G(d,p) empiricaldispersion=gd3bj scf=xqc pop=npa geom=check

CID_61562770_JID_10778_Energie_neutraal

0 1

--Link1--
%chk=JID_10778.chk
%mem=8GB
%nprocshared=4
# B3LYP/6-311++G(d,p) empiricaldispersion=gd3bj scf=xqc pop=npa geom=check

CID_61562770_JID_10778_Energie_kation

1 2

--Link1--
%chk=JID_10778.chk
%mem=8GB
%nprocshared=4
# B3LYP/6-311++G(d,p) empiricaldispersion=gd3bj scf=xqc pop=npa geom=check

CID_61562770_JID_10778_Energie_anion

-1 2
