%chk=JID_6704.chk
%mem=8GB
%nprocshared=4
# opt freq B3LYP/6-31G(d) empiricaldispersion=gd3bj scf=xqc

CID_64025216_JID_6704_neutraal

0 1
C          1.03677        0.00452       -0.09289
C          0.65748       -0.25437        1.35067
S          1.41542        0.88394        2.50196
O          1.11898        2.22986        2.04142
O          1.01557        0.48664        3.84099
C          3.18297        0.67032        2.37588
C          3.66435       -0.71960        2.77705
N          3.46784       -1.72723        1.72075
C          4.48048       -1.62803        0.65765
C          4.15131       -2.58985       -0.48683
C          4.04294       -4.04113       -0.00066
C          3.10968       -4.11381        1.21896
C          3.47775       -3.08591        2.28903
C          3.53553       -4.99871       -1.09823
C          4.34655       -5.02467       -2.39645
N          5.72728       -5.43546       -2.17909
H          0.71181        1.00088       -0.40936
H          0.55615       -0.72952       -0.74697
H          2.11478       -0.05406       -0.25277
H         -0.42431       -0.12965        1.47207
H          0.90019       -1.27265        1.65999
H          3.49370        0.97133        1.37281
H          3.60604        1.40433        3.07250
H          4.72738       -0.67186        3.04700
H          3.13364       -1.02026        3.68862
H          5.48376       -1.84180        1.04899
H          4.50959       -0.61590        0.24088
H          4.93307       -2.50189       -1.24956
H          3.20891       -2.28493       -0.96005
H          5.03905       -4.36911        0.32441
H          2.07104       -3.94475        0.90418
H          3.14688       -5.11920        1.65555
H          2.73444       -3.16164        3.09218
H          4.45639       -3.32433        2.72532
H          3.49517       -6.01622       -0.68684
H          2.50115       -4.73433       -1.35528
H          3.87744       -5.73613       -3.08536
H          4.32297       -4.04733       -2.88949
H          6.20885       -5.48252       -3.07660
H          6.21870       -4.72997       -1.63345

--Link1--
%chk=JID_6704.chk
%mem=8GB
%nprocshared=4
# B3LYP/6-311++G(d,p) empiricaldispersion=gd3bj scf=xqc pop=npa geom=check

CID_64025216_JID_6704_Energie_neutraal

0 1

--Link1--
%chk=JID_6704.chk
%mem=8GB
%nprocshared=4
# B3LYP/6-311++G(d,p) empiricaldispersion=gd3bj scf=xqc pop=npa geom=check

CID_64025216_JID_6704_Energie_kation

1 2

--Link1--
%chk=JID_6704.chk
%mem=8GB
%nprocshared=4
# B3LYP/6-311++G(d,p) empiricaldispersion=gd3bj scf=xqc pop=npa geom=check

CID_64025216_JID_6704_Energie_anion

-1 2
