%chk=JID_3972.chk
%mem=8GB
%nprocshared=4
# opt freq B3LYP/6-31G(d) empiricaldispersion=gd3bj scf=xqc

CID_152210572_JID_3972_neutraal

0 1
C         -1.43100        0.32400       -0.23100
C         -1.02060       -1.08100        0.18863
C          0.43177       -1.37363       -0.18845
C          1.43694       -0.33526        0.38635
C          0.97217        1.08566       -0.00600
C         -0.48957        1.37326        0.34523
C          2.83823       -0.68587       -0.18700
C          3.94736        0.35316       -0.01300
O          4.29035        0.52551        1.33823
O          5.12215       -0.08137       -0.66684
N          1.43676       -0.56322        1.85196
N          1.72802        0.36776        2.62523
N          1.96064        1.22091        3.34537
H         -2.45595        0.52483        0.10052
H         -1.43033        0.39402       -1.32574
H         -1.15829       -1.19901        1.27006
H         -1.67743       -1.81343       -0.29455
H          0.50418       -1.39011       -1.28415
H          0.68985       -2.38264        0.15857
H          1.09435        1.21215       -1.09028
H          1.59688        1.85417        0.46333
H         -0.76715        2.36172       -0.03889
H         -0.61314        1.41535        1.43350
H          3.17154       -1.63545        0.25541
H          2.74828       -0.87969       -1.26485
H          3.66056        1.31680       -0.44330
H          4.88866        1.29243        1.35359
H          5.27797       -0.98937       -0.35578

--Link1--
%chk=JID_3972.chk
%mem=8GB
%nprocshared=4
# B3LYP/6-311++G(d,p) empiricaldispersion=gd3bj scf=xqc pop=npa geom=check

CID_152210572_JID_3972_Energie_neutraal

0 1

--Link1--
%chk=JID_3972.chk
%mem=8GB
%nprocshared=4
# B3LYP/6-311++G(d,p) empiricaldispersion=gd3bj scf=xqc pop=npa geom=check

CID_152210572_JID_3972_Energie_kation

1 2

--Link1--
%chk=JID_3972.chk
%mem=8GB
%nprocshared=4
# B3LYP/6-311++G(d,p) empiricaldispersion=gd3bj scf=xqc pop=npa geom=check

CID_152210572_JID_3972_Energie_anion

-1 2
