%chk=JID_9558.chk
%mem=8GB
%nprocshared=4
# opt freq B3LYP/6-31G(d) empiricaldispersion=gd3bj scf=xqc

CID_116227932_JID_9558_neutraal

0 1
C          1.04524       -0.05578        0.06959
C          0.53359       -0.24430       -1.36043
C          1.07285       -1.53749       -1.97347
C         -0.96717       -0.14810       -1.45512
C         -1.70373        0.75173       -2.22218
N         -3.01403        0.51068       -1.89885
N         -3.19299       -0.51033       -1.05352
C         -1.95925       -0.90396       -0.76739
N         -1.72368       -1.90900        0.08370
C         -1.32833        1.80495       -3.16923
C         -1.88677        3.09753       -3.10629
C         -1.55015        4.08844       -4.04837
C         -0.61975        3.78376       -5.04428
C         -0.05221        2.50927       -5.11267
C         -0.40870        1.52713       -4.18742
O         -2.17855        5.29862       -3.90713
C         -1.88718        6.30449       -4.86739
O         -2.83699        3.37177       -2.14409
C         -2.21946        3.99745       -1.01718
H          0.75341       -0.88159        0.72570
H          0.65710        0.87157        0.50554
H          2.13926        0.00149        0.08091
H          0.96672        0.58117       -1.93874
H          0.75705       -2.42254       -1.41285
H          0.72511       -1.65765       -3.00540
H          2.16816       -1.52869       -1.98850
H         -3.82651        1.02155       -2.22774
H         -2.53333       -2.46429        0.33735
H         -0.86442       -2.43768        0.04493
H         -0.31962        4.51210       -5.79027
H          0.66253        2.27600       -5.89853
H          0.02602        0.53452       -4.27977
H         -0.83147        6.59232       -4.82859
H         -2.17474        5.98542       -5.87460
H         -2.48140        7.18837       -4.61624
H         -2.98178        4.11120       -0.24069
H         -1.41073        3.38164       -0.60783
H         -1.84454        4.99442       -1.27063

--Link1--
%chk=JID_9558.chk
%mem=8GB
%nprocshared=4
# B3LYP/6-311++G(d,p) empiricaldispersion=gd3bj scf=xqc pop=npa geom=check

CID_116227932_JID_9558_Energie_neutraal

0 1

--Link1--
%chk=JID_9558.chk
%mem=8GB
%nprocshared=4
# B3LYP/6-311++G(d,p) empiricaldispersion=gd3bj scf=xqc pop=npa geom=check

CID_116227932_JID_9558_Energie_kation

1 2

--Link1--
%chk=JID_9558.chk
%mem=8GB
%nprocshared=4
# B3LYP/6-311++G(d,p) empiricaldispersion=gd3bj scf=xqc pop=npa geom=check

CID_116227932_JID_9558_Energie_anion

-1 2
