%chk=JID_7359.chk
%mem=8GB
%nprocshared=4
# opt freq B3LYP/6-31G(d) empiricaldispersion=gd3bj scf=xqc

CID_126510043_JID_7359_neutraal

0 1
C          0.36800        1.29200        0.00000
C         -1.11271        1.00346       -0.27312
C         -1.53165       -0.41716        0.04658
C         -0.61702       -1.38030        0.27371
C          0.87220       -1.17358        0.18970
C          1.26950        0.15424       -0.46592
O          1.21559        0.04305       -1.88985
C         -2.95251       -0.74632        0.12220
C         -3.96725        0.06682       -0.21342
C         -5.33404       -0.32331       -0.12495
C         -5.94414       -1.44155        0.43296
C         -7.34087       -1.32249        0.23852
C         -7.54314       -0.13504       -0.43157
O         -6.33653        0.46809       -0.64243
C         -8.72965        0.52128       -0.90860
O         -8.82956        1.58552       -1.50182
O         -9.84222       -0.19795       -0.62735
H          0.51342        1.45135        1.07606
H          0.64208        2.22456       -0.50738
H         -1.69919        1.71626        0.31974
H         -1.33047        1.20513       -1.32982
H         -0.92893       -2.39207        0.52583
H          1.30684       -2.00597       -0.37613
H          1.27309       -1.21574        1.20927
H          2.31058        0.38377       -0.21445
H          0.35422       -0.34544       -2.12498
H         -3.17368       -1.75465        0.46828
H         -3.78766        1.06742       -0.59387
H         -5.43710       -2.25601        0.93139
H         -8.11235       -2.01488        0.54651
H        -10.55583        0.35655       -1.00488

--Link1--
%chk=JID_7359.chk
%mem=8GB
%nprocshared=4
# B3LYP/6-311++G(d,p) empiricaldispersion=gd3bj scf=xqc pop=npa geom=check

CID_126510043_JID_7359_Energie_neutraal

0 1

--Link1--
%chk=JID_7359.chk
%mem=8GB
%nprocshared=4
# B3LYP/6-311++G(d,p) empiricaldispersion=gd3bj scf=xqc pop=npa geom=check

CID_126510043_JID_7359_Energie_kation

1 2

--Link1--
%chk=JID_7359.chk
%mem=8GB
%nprocshared=4
# B3LYP/6-311++G(d,p) empiricaldispersion=gd3bj scf=xqc pop=npa geom=check

CID_126510043_JID_7359_Energie_anion

-1 2
