%chk=JID_4605.chk
%mem=8GB
%nprocshared=4
# opt freq B3LYP/6-31G(d) empiricaldispersion=gd3bj scf=xqc

CID_105294032_JID_4605_neutraal

0 1
C          0.96139       -0.04754       -0.07905
C          0.88439       -1.32126       -0.90662
C          1.18941       -2.58912       -0.10535
C          0.25761       -2.86103        1.07975
C         -1.23161       -2.97531        0.73786
C         -1.59800       -4.05853       -0.28735
C         -1.20031       -5.50044        0.09777
C         -1.79712       -5.97265        1.45106
C         -3.30489       -5.75981        1.73621
C         -4.21474       -6.53395        0.77910
C         -3.65648       -6.17184        3.18646
C         -3.00526       -5.30077        4.25306
N         -1.51237       -6.37128       -1.05648
N         -0.89094       -7.66552       -0.89916
H          0.17512       -0.01414        0.68071
H          0.83482        0.82755       -0.72460
H          1.93123        0.03830        0.42102
H         -0.10245       -1.39319       -1.37641
H          1.61112       -1.24867       -1.72489
H          1.17399       -3.44720       -0.78751
H          2.21708       -2.52663        0.27465
H          0.58950       -3.77961        1.57769
H          0.38060       -2.06672        1.82587
H         -1.78344       -3.14663        1.66889
H         -1.59096       -2.01016        0.36116
H         -2.67972       -4.00714       -0.46646
H         -1.13218       -3.80082       -1.24756
H         -0.10767       -5.51149        0.20936
H         -1.55730       -7.03325        1.60407
H         -1.22634       -5.44821        2.22648
H         -3.54859       -4.69615        1.63417
H         -3.89868       -7.57754        0.68155
H         -5.25264       -6.52996        1.13047
H         -4.23021       -6.07234       -0.21116
H         -4.74284       -6.10401        3.32587
H         -3.38267       -7.22011        3.35737
H         -3.20091       -4.23982        4.06838
H         -3.41036       -5.55231        5.23873
H         -1.92354       -5.45331        4.29793
H         -2.52476       -6.44979       -1.16621
H         -1.08673       -8.25997       -1.71032
H          0.13016       -7.57776       -0.88874

--Link1--
%chk=JID_4605.chk
%mem=8GB
%nprocshared=4
# B3LYP/6-311++G(d,p) empiricaldispersion=gd3bj scf=xqc pop=npa geom=check

CID_105294032_JID_4605_Energie_neutraal

0 1

--Link1--
%chk=JID_4605.chk
%mem=8GB
%nprocshared=4
# B3LYP/6-311++G(d,p) empiricaldispersion=gd3bj scf=xqc pop=npa geom=check

CID_105294032_JID_4605_Energie_kation

1 2

--Link1--
%chk=JID_4605.chk
%mem=8GB
%nprocshared=4
# B3LYP/6-311++G(d,p) empiricaldispersion=gd3bj scf=xqc pop=npa geom=check

CID_105294032_JID_4605_Energie_anion

-1 2
