%chk=JID_4290.chk
%mem=8GB
%nprocshared=4
# opt freq B3LYP/6-31G(d) empiricaldispersion=gd3bj scf=xqc

CID_123605795_JID_4290_neutraal

0 1
C          1.06680       -0.07192       -0.01911
C         -0.00424        0.99252        0.15491
C         -0.16078        1.89549       -1.07002
C         -0.61560        1.19500       -2.35764
C         -2.00122        0.59414       -2.28489
C         -3.08902        1.36642       -2.45653
C         -2.13694       -0.89381       -2.03019
C         -1.88954       -1.75267       -3.27790
C         -0.51143       -2.42725       -3.35310
C         -0.18473       -3.46805       -2.25393
C         -1.28324       -4.53003       -2.13092
C          1.16234       -4.17206       -2.55236
C          2.40531       -3.30991       -2.30645
C          2.78501       -3.24134       -0.83416
H          0.82835       -0.75614       -0.83508
H          1.16167       -0.66172        0.89804
H          2.03974        0.38357       -0.22946
H         -0.95928        0.52023        0.40804
H          0.26672        1.61861        1.01378
H         -0.87069        2.69504       -0.82262
H          0.79832        2.39108       -1.26758
H         -0.60042        1.93876       -3.16642
H          0.11677        0.44188       -2.65973
H         -4.09307        0.95522       -2.41590
H         -3.00308        2.43281       -2.64374
H         -1.49866       -1.19322       -1.19551
H         -3.16136       -1.09627       -1.68816
H         -2.66590       -2.52469       -3.33464
H         -2.02361       -1.14649       -4.18350
H         -0.44934       -2.92407       -4.33064
H          0.26027       -1.65218       -3.36398
H         -0.11050       -2.96273       -1.28553
H         -1.46635       -5.02527       -3.09015
H         -1.00322       -5.29737       -1.40084
H         -2.22327       -4.09175       -1.78224
H          1.24970       -5.08548       -1.95019
H          1.16647       -4.49893       -3.60022
H          3.24878       -3.75047       -2.85176
H          2.27243       -2.29849       -2.70177
H          3.05133       -4.23353       -0.45543
H          3.65163       -2.58656       -0.69793
H          1.96739       -2.85540       -0.22107

--Link1--
%chk=JID_4290.chk
%mem=8GB
%nprocshared=4
# B3LYP/6-311++G(d,p) empiricaldispersion=gd3bj scf=xqc pop=npa geom=check

CID_123605795_JID_4290_Energie_neutraal

0 1

--Link1--
%chk=JID_4290.chk
%mem=8GB
%nprocshared=4
# B3LYP/6-311++G(d,p) empiricaldispersion=gd3bj scf=xqc pop=npa geom=check

CID_123605795_JID_4290_Energie_kation

1 2

--Link1--
%chk=JID_4290.chk
%mem=8GB
%nprocshared=4
# B3LYP/6-311++G(d,p) empiricaldispersion=gd3bj scf=xqc pop=npa geom=check

CID_123605795_JID_4290_Energie_anion

-1 2
