%chk=JID_10416.chk
%mem=8GB
%nprocshared=4
# opt freq B3LYP/6-31G(d) empiricaldispersion=gd3bj scf=xqc

CID_83062263_JID_10416_neutraal

0 1
C          0.99279        0.08002       -0.05954
C          0.57264       -1.35363       -0.29644
C          1.15729       -2.40813        0.65904
C          0.71529       -2.30997        2.14518
C          1.65394       -1.31140        2.87555
C          1.21730       -1.05033        4.31159
C          1.10688       -2.35962        5.06948
C          0.24898       -3.36305        4.30500
N          0.74861       -3.57210        2.93192
C          0.18993       -4.84069        2.35736
C         -1.32739       -4.86223        2.17177
C         -2.09467       -5.77223        2.92850
C         -3.48201       -5.84326        2.78708
C         -4.13372       -4.99684        1.89665
C         -3.39827       -4.08267        1.14822
C         -2.00836       -4.01849        1.28300
C          1.11876       -5.44167        1.25842
O          2.35016       -5.28756        1.31269
N          0.67530       -6.22271        0.21482
N         -0.61975       -6.63991       -0.08738
H          0.49792        0.49883        0.82098
H          0.69822        0.70060       -0.91272
H          2.07729        0.16588        0.05666
H         -0.52181       -1.40728       -0.28360
H          0.87838       -1.62820       -1.31439
H          0.81563       -3.34565        0.22281
H          2.25169       -2.41570        0.58364
H         -0.30444       -1.90512        2.17000
H          1.69953       -0.34877        2.36616
H          2.68042       -1.70393        2.87640
H          1.93541       -0.38859        4.80859
H          0.24897       -0.53536        4.31346
H          2.10907       -2.77819        5.22682
H          0.67688       -2.17975        6.06127
H          0.27222       -4.30025        4.87454
H         -0.79395       -3.02123        4.29032
H          0.38170       -5.59118        3.14241
H         -1.61300       -6.44276        3.63893
H         -4.05312       -6.55673        3.37617
H         -5.21426       -5.04609        1.78901
H         -3.90710       -3.41534        0.45653
H         -1.47143       -3.30413        0.67100
H          1.43348       -6.54970       -0.38393
H         -1.07738       -7.02500        0.74142
H         -1.18215       -5.83626       -0.37808

--Link1--
%chk=JID_10416.chk
%mem=8GB
%nprocshared=4
# B3LYP/6-311++G(d,p) empiricaldispersion=gd3bj scf=xqc pop=npa geom=check

CID_83062263_JID_10416_Energie_neutraal

0 1

--Link1--
%chk=JID_10416.chk
%mem=8GB
%nprocshared=4
# B3LYP/6-311++G(d,p) empiricaldispersion=gd3bj scf=xqc pop=npa geom=check

CID_83062263_JID_10416_Energie_kation

1 2

--Link1--
%chk=JID_10416.chk
%mem=8GB
%nprocshared=4
# B3LYP/6-311++G(d,p) empiricaldispersion=gd3bj scf=xqc pop=npa geom=check

CID_83062263_JID_10416_Energie_anion

-1 2
