%chk=JID_6352.chk
%mem=8GB
%nprocshared=4
# opt freq B3LYP/6-31G(d) empiricaldispersion=gd3bj scf=xqc

CID_129361847_JID_6352_neutraal

0 1
C         -0.79152       -0.08114        1.73017
C          0.35843        0.68807        1.05084
N          1.39547        0.98728        2.08816
C          1.41782        2.37939        2.35615
C          2.27552        2.94018        3.29640
C          2.27069        4.32467        3.48943
C          1.41572        5.14104        2.73966
C          0.56035        4.57851        1.79120
C          0.57440        3.20258        1.61271
S         -0.36864        2.27927        0.45669
C          0.98456       -0.16797       -0.07766
C          1.55884       -1.40865        0.23124
C          2.15093       -2.16611       -0.77750
C          2.16726       -1.67632       -2.07521
C          1.58998       -0.44318       -2.31080
N          1.01069        0.31030       -1.35093
H         -1.56801       -0.36735        1.01032
H         -1.26152        0.50705        2.52843
H         -0.43636       -1.00349        2.20490
H          2.32231        0.74339        1.74016
H          2.93856        2.31100        3.88198
H          2.93593        4.77000        4.22518
H          1.42137        6.21737        2.89304
H         -0.09645        5.20782        1.19904
H          1.55827       -1.78412        1.25074
H          2.59894       -3.12910       -0.54875
H          2.62094       -2.23888       -2.88314
H          1.57749       -0.01003       -3.30698

--Link1--
%chk=JID_6352.chk
%mem=8GB
%nprocshared=4
# B3LYP/6-311++G(d,p) empiricaldispersion=gd3bj scf=xqc pop=npa geom=check

CID_129361847_JID_6352_Energie_neutraal

0 1

--Link1--
%chk=JID_6352.chk
%mem=8GB
%nprocshared=4
# B3LYP/6-311++G(d,p) empiricaldispersion=gd3bj scf=xqc pop=npa geom=check

CID_129361847_JID_6352_Energie_kation

1 2

--Link1--
%chk=JID_6352.chk
%mem=8GB
%nprocshared=4
# B3LYP/6-311++G(d,p) empiricaldispersion=gd3bj scf=xqc pop=npa geom=check

CID_129361847_JID_6352_Energie_anion

-1 2
