%chk=JID_8068.chk
%mem=8GB
%nprocshared=4
# opt=(cartesian,calcfc,maxcycle=500) freq B3LYP/6-31G(d) empiricaldispersion=gd3bj scf=xqc

CID_8000920_JID_8068_neutraal

0 1
S       -0.5487 -3.2908 0.9777
O       4.1043  -1.2888 0.3331
N       2.0031  -0.6870 -0.4615
N       1.3955  -1.8260 0.0127
N       -0.5677 -0.6039 0.2812
C       3.8942  0.7564  -0.8135
C       4.6275  1.6806  0.0977
C       3.2596  2.0413  -0.4028
C       3.3539  -0.5150 -0.2504
C       -2.3988 0.9825  0.4455
C       -1.9030 -0.2277 -0.0090
C       0.0674  -1.8333 0.4234
C       -1.5632 1.9261  1.2483
C       -3.7152 1.3354  0.1485
C       -2.6856 -1.0958 -0.7524
C       -0.8044 2.9160  0.3703
C       -4.5167 0.4727  -0.5992
C       -4.0020 -0.7428 -1.0496
H       4.2647  0.6825  -1.8305
H       4.7255  1.4199  1.1445
H       5.4715  2.2263  -0.3064
H       3.1846  2.8275  -1.1442
H       2.4506  2.0318  0.3174
H       1.4330  -0.0438 -1.0008
H       1.9649  -2.6655 0.0454
H       -0.8694 1.3908  1.9066
H       -2.2091 2.4906  1.9340
H       0.0521  0.1807  0.4634
H       -4.1295 2.2803  0.4902
H       -2.3038 -2.0320 -1.1462
H       -0.1286 2.4029  -0.3215
H       -0.2064 3.5901  0.9917
H       -1.4927 3.5255  -0.2250
H       -5.5409 0.7485  -0.8328
H       -4.6239 -1.4106 -1.6387

--Link1--
%chk=JID_8068.chk
%mem=8GB
%nprocshared=4
# B3LYP/6-311++G(d,p) empiricaldispersion=gd3bj scf=xqc pop=npa geom=check

CID_8000920_JID_8068_Energie_neutraal

0 1

--Link1--
%chk=JID_8068.chk
%mem=8GB
%nprocshared=4
# B3LYP/6-311++G(d,p) empiricaldispersion=gd3bj scf=xqc pop=npa geom=check

CID_8000920_JID_8068_Energie_kation

1 2

--Link1--
%chk=JID_8068.chk
%mem=8GB
%nprocshared=4
# B3LYP/6-311++G(d,p) empiricaldispersion=gd3bj scf=xqc pop=npa geom=check

CID_8000920_JID_8068_Energie_anion

-1 2
