%chk=JID_9721.chk
%mem=8GB
%nprocshared=4
# opt freq B3LYP/6-31G(d) empiricaldispersion=gd3bj scf=xqc

CID_113536360_JID_9721_neutraal

0 1
C          2.91400       -0.01100        0.00300
C          1.42278       -0.00435        0.15179
C          0.70441       -1.20481        0.11871
C         -0.69645       -1.22494        0.26693
C         -1.38095       -0.01238        0.48735
C         -0.64924        1.18407        0.54014
C          0.73591        1.18890        0.37516
C         -2.87213        0.04744        0.67987
C         -1.40810       -2.55569        0.15033
C         -1.30372       -3.17989       -1.23102
O         -1.00418       -4.37072       -1.36817
C         -1.66984       -2.31558       -2.43229
N         -3.10922       -2.05600       -2.43077
C         -3.64732       -1.04992       -3.23888
C         -5.03750       -1.03062       -3.43093
C         -5.66370       -0.00634       -4.14796
C         -4.90880        1.03840       -4.66858
C         -3.53440        1.06109       -4.45814
C         -2.91451        0.03391       -3.73651
H          3.38443       -0.26809        0.95707
H          3.22324       -0.73836       -0.75501
H          3.28458        0.96859       -0.31688
H          1.24366       -2.14000       -0.03297
H         -1.15803        2.13067        0.71219
H          1.27259        2.13352        0.42524
H         -3.39156       -0.35201       -0.19440
H         -3.16090       -0.51989        1.57035
H         -3.21953        1.07670        0.82024
H         -0.96280       -3.24718        0.87685
H         -2.46953       -2.48837        0.40496
H         -1.06272       -1.40889       -2.38428
H         -1.38967       -2.85310       -3.34551
H         -3.65141       -2.91671       -2.49782
H         -5.65489       -1.82096       -3.01059
H         -6.74120       -0.02222       -4.28647
H         -5.39040        1.83984       -5.22171
H         -2.93886        1.88520       -4.84238
H         -1.84524        0.11896       -3.57479

--Link1--
%chk=JID_9721.chk
%mem=8GB
%nprocshared=4
# B3LYP/6-311++G(d,p) empiricaldispersion=gd3bj scf=xqc pop=npa geom=check

CID_113536360_JID_9721_Energie_neutraal

0 1

--Link1--
%chk=JID_9721.chk
%mem=8GB
%nprocshared=4
# B3LYP/6-311++G(d,p) empiricaldispersion=gd3bj scf=xqc pop=npa geom=check

CID_113536360_JID_9721_Energie_kation

1 2

--Link1--
%chk=JID_9721.chk
%mem=8GB
%nprocshared=4
# B3LYP/6-311++G(d,p) empiricaldispersion=gd3bj scf=xqc pop=npa geom=check

CID_113536360_JID_9721_Energie_anion

-1 2
