%chk=JID_6700.chk
%mem=8GB
%nprocshared=4
# opt freq B3LYP/6-31G(d) empiricaldispersion=gd3bj scf=xqc

CID_123218535_JID_6700_neutraal

0 1
C          0.95257        0.03998        0.07843
C          0.76907        0.26851        1.57063
C          1.53364        1.48428        2.09844
C          1.11737        2.83440        1.50667
C         -0.35711        3.21947        1.68908
C         -0.88736        3.21202        3.14029
C         -0.09090        4.15528        4.04391
N         -2.30838        3.58593        3.07204
C         -3.07345        3.35795        4.30205
C         -3.37059        4.63420        5.14624
C         -4.16040        5.64875        4.30141
C         -4.02177        4.31957        6.55922
C         -3.09918        3.33565        7.33285
C         -4.06859        5.60511        7.41981
C         -5.42812        3.65065        6.48778
C         -6.63115        4.55315        6.24048
H          0.50617        0.84821       -0.50824
H          0.46658       -0.89422       -0.22085
H          2.01343       -0.03210       -0.18118
H         -0.29837        0.35628        1.79953
H          1.12794       -0.62041        2.10351
H          1.43098        1.51605        3.18930
H          2.60394        1.34005        1.90316
H          1.75176        3.61502        1.94328
H          1.34552        2.84562        0.43384
H         -0.49327        4.22040        1.25639
H         -0.97151        2.54443        1.07853
H         -0.80805        2.19013        3.52828
H         -0.17836        5.19591        3.71301
H         -0.43314        4.09418        5.08134
H          0.97156        3.89502        4.05789
H         -2.40723        4.54104        2.73910
H         -4.02866        2.91939        3.99173
H         -2.57661        2.58985        4.90003
H         -2.40836        5.11580        5.36418
H         -5.00719        5.17600        3.79543
H         -4.53041        6.49088        4.88935
H         -3.52471        6.08573        3.52395
H         -2.05553        3.66847        7.31183
H         -3.39731        3.25910        8.38559
H         -3.14606        2.32124        6.92413
H         -4.70737        6.38175        6.99242
H         -4.45394        5.39106        8.42381
H         -3.06652        6.03361        7.53755
H         -5.42600        2.85479        5.73497
H         -5.62216        3.14322        7.44320
H         -6.57166        5.08860        5.29340
H         -7.54291        3.94634        6.21102
H         -6.75908        5.28219        7.04601

--Link1--
%chk=JID_6700.chk
%mem=8GB
%nprocshared=4
# B3LYP/6-311++G(d,p) empiricaldispersion=gd3bj scf=xqc pop=npa geom=check

CID_123218535_JID_6700_Energie_neutraal

0 1

--Link1--
%chk=JID_6700.chk
%mem=8GB
%nprocshared=4
# B3LYP/6-311++G(d,p) empiricaldispersion=gd3bj scf=xqc pop=npa geom=check

CID_123218535_JID_6700_Energie_kation

1 2

--Link1--
%chk=JID_6700.chk
%mem=8GB
%nprocshared=4
# B3LYP/6-311++G(d,p) empiricaldispersion=gd3bj scf=xqc pop=npa geom=check

CID_123218535_JID_6700_Energie_anion

-1 2
