%chk=JID_3284.chk
%mem=8GB
%nprocshared=4
# opt freq B3LYP/6-31G(d) empiricaldispersion=gd3bj scf=xqc

CID_151840743_JID_3284_neutraal

0 1
C          0.98359       -0.09819       -0.00947
C          0.65934        0.96755       -1.03773
C          1.27440        0.66824       -2.38737
O          0.60788        0.16099       -3.28893
N          2.58332        0.94157       -2.61291
C          3.58992        1.49143       -1.73556
C          4.39305        0.35651       -1.08388
O          5.31689        0.52752       -0.28936
N          4.46945        2.38234       -2.49977
C          5.32074        3.29927       -1.74365
N          4.88255        1.90211       -3.74327
N          5.75814        2.54637       -4.36474
N          6.55747        3.12641       -4.93520
H          0.73995       -1.09660       -0.38731
H          0.40764        0.07176        0.90562
H          2.04249       -0.09259        0.25880
H         -0.42752        1.01946       -1.17709
H          0.96623        1.95858       -0.69118
H          2.90199        0.76694       -3.55769
H          3.10756        2.06755       -0.94222
H          4.09742       -0.66583       -1.37651
H          6.21643        2.77179       -1.40615
H          5.59973        4.15072       -2.36990
H          4.76656        3.68293       -0.88218

--Link1--
%chk=JID_3284.chk
%mem=8GB
%nprocshared=4
# B3LYP/6-311++G(d,p) empiricaldispersion=gd3bj scf=xqc pop=npa geom=check

CID_151840743_JID_3284_Energie_neutraal

0 1

--Link1--
%chk=JID_3284.chk
%mem=8GB
%nprocshared=4
# B3LYP/6-311++G(d,p) empiricaldispersion=gd3bj scf=xqc pop=npa geom=check

CID_151840743_JID_3284_Energie_kation

1 2

--Link1--
%chk=JID_3284.chk
%mem=8GB
%nprocshared=4
# B3LYP/6-311++G(d,p) empiricaldispersion=gd3bj scf=xqc pop=npa geom=check

CID_151840743_JID_3284_Energie_anion

-1 2
