%chk=JID_7637.chk
%mem=8GB
%nprocshared=4
# opt freq B3LYP/6-31G(d) empiricaldispersion=gd3bj scf=xqc

CID_112552440_JID_7637_neutraal

0 1
C          1.08083        0.05866        0.00506
C         -0.31342        0.22480       -0.58329
C         -0.68935       -0.86817       -1.58696
C         -0.82935       -2.21997       -0.96473
N          0.06813       -3.18238       -1.02897
C         -0.45133       -4.26977       -0.33922
C         -1.69577       -3.92676        0.17274
N         -1.93643       -2.65016       -0.27744
C         -3.20823       -1.96432       -0.15066
C         -4.13310       -2.59034        0.89129
C         -4.10437       -4.11720        0.80780
C         -2.68359       -4.67505        1.01729
C         -2.27752       -4.61796        2.49402
C          0.23065       -5.56510       -0.17897
O         -0.13754       -6.41436        0.63525
N          1.30966       -5.87129       -0.97597
C          1.82498       -5.11329       -2.08858
H          1.15680       -0.85578        0.60132
H          1.31647        0.90449        0.65880
H          1.83773        0.01984       -0.78474
H         -1.04028        0.26752        0.23519
H         -0.35724        1.19346       -1.09567
H         -1.62869       -0.59563       -2.08267
H          0.06997       -0.91628       -2.37731
H         -3.67656       -2.00409       -1.14121
H         -3.01817       -0.91783        0.10246
H         -5.15501       -2.22470        0.74004
H         -3.83048       -2.26673        1.89394
H         -4.79549       -4.54532        1.54318
H         -4.46941       -4.42216       -0.18210
H         -2.69711       -5.72812        0.71015
H         -3.00746       -5.14442        3.11796
H         -1.30304       -5.09112        2.65499
H         -2.19715       -3.58853        2.85945
H          1.69653       -6.78522       -0.78741
H          2.31916       -4.21241       -1.71794
H          2.55512       -5.73346       -2.61492
H          1.01315       -4.85478       -2.77316

--Link1--
%chk=JID_7637.chk
%mem=8GB
%nprocshared=4
# B3LYP/6-311++G(d,p) empiricaldispersion=gd3bj scf=xqc pop=npa geom=check

CID_112552440_JID_7637_Energie_neutraal

0 1

--Link1--
%chk=JID_7637.chk
%mem=8GB
%nprocshared=4
# B3LYP/6-311++G(d,p) empiricaldispersion=gd3bj scf=xqc pop=npa geom=check

CID_112552440_JID_7637_Energie_kation

1 2

--Link1--
%chk=JID_7637.chk
%mem=8GB
%nprocshared=4
# B3LYP/6-311++G(d,p) empiricaldispersion=gd3bj scf=xqc pop=npa geom=check

CID_112552440_JID_7637_Energie_anion

-1 2
