%chk=JID_9061.chk
%mem=8GB
%nprocshared=4
# opt freq B3LYP/6-31G(d) empiricaldispersion=gd3bj scf=xqc

CID_68134921_JID_9061_neutraal

0 1
C          1.04232       -0.03961        0.08148
C          0.93188       -0.17698        1.56791
C          0.54733        0.76035        2.45690
C          0.52371        0.44543        3.93127
C          0.08461        2.15845        2.09546
C          1.16877        3.24609        2.20852
C          2.18710        3.20944        1.08260
C          1.91008        3.79357       -0.10233
C          2.77165        3.73626       -1.33207
S          1.86941        4.20508       -2.85758
O          2.82876        4.03482       -4.00109
C          0.74911        2.78909       -2.95417
C          1.14991        1.58634       -3.54181
C          0.26214        0.50916       -3.61648
C         -1.03485        0.62015       -3.10046
C         -1.44196        1.83565       -2.53902
C         -0.55567        2.91319       -2.46580
C         -1.99801       -0.52512       -3.20873
C          3.48252        2.51073        1.39984
H          0.73685        0.93888       -0.28726
H          0.41375       -0.79282       -0.40355
H          2.07788       -0.20895       -0.22942
H          1.22923       -1.15720        1.93990
H          1.17916        1.12915        4.47947
H         -0.49334        0.54649        4.32429
H          0.85911       -0.57536        4.14333
H         -0.36462        2.17647        1.09567
H         -0.74067        2.42669        2.76904
H          0.66958        4.22465        2.19795
H          1.67569        3.19131        3.17967
H          0.95977        4.31549       -0.19841
H          3.59173        4.45494       -1.23701
H          3.19031        2.73737       -1.48981
H          2.15118        1.48525       -3.95516
H          0.58996       -0.41667       -4.08448
H         -2.45408        1.95184       -2.15722
H         -0.89775        3.84882       -2.03130
H         -2.71748       -0.50935       -2.38310
H         -2.54461       -0.46678       -4.15495
H         -1.47148       -1.48405       -3.16113
H          3.95719        2.98295        2.26670
H          3.31581        1.45709        1.63511
H          4.20240        2.55467        0.57809

--Link1--
%chk=JID_9061.chk
%mem=8GB
%nprocshared=4
# B3LYP/6-311++G(d,p) empiricaldispersion=gd3bj scf=xqc pop=npa geom=check

CID_68134921_JID_9061_Energie_neutraal

0 1

--Link1--
%chk=JID_9061.chk
%mem=8GB
%nprocshared=4
# B3LYP/6-311++G(d,p) empiricaldispersion=gd3bj scf=xqc pop=npa geom=check

CID_68134921_JID_9061_Energie_kation

1 2

--Link1--
%chk=JID_9061.chk
%mem=8GB
%nprocshared=4
# B3LYP/6-311++G(d,p) empiricaldispersion=gd3bj scf=xqc pop=npa geom=check

CID_68134921_JID_9061_Energie_anion

-1 2
