%chk=JID_7616.chk
%mem=8GB
%nprocshared=4
# opt freq B3LYP/6-31G(d) empiricaldispersion=gd3bj scf=xqc

CID_12307003_JID_7616_neutraal

0 1
C          0.93738        0.03244       -0.07089
N          0.72789       -0.85844       -1.17848
C          0.67084       -2.20986       -1.10017
C          0.50578       -2.64765       -2.34575
O          0.45657       -1.60336       -3.29541
C          0.60550       -0.47611       -2.49878
O          0.62551        0.66538       -2.93555
C          0.39704       -4.02638       -2.83023
C          0.72414       -4.34260       -4.15418
C          0.63103       -5.65432       -4.65440
C          0.19518       -6.68866       -3.80910
C         -0.14342       -6.37298       -2.48557
C         -0.04492       -5.06133       -2.00342
O          0.13173       -7.96003       -4.31104
C         -0.34807       -8.99851       -3.46766
O          1.01642       -5.72575       -5.96865
C          0.84119       -6.94399       -6.67404
H          0.19664       -0.17580        0.70671
H          0.84184        1.07380       -0.39049
H          1.94326       -0.12751        0.32842
H          0.76312       -2.75055       -0.17182
H          1.07020       -3.56047       -4.82933
H         -0.49067       -7.13010       -1.78975
H         -0.33056       -4.86844       -0.97207
H          0.31169       -9.14403       -2.60616
H         -1.37926       -8.80783       -3.15278
H         -0.34502       -9.92660       -4.04745
H          1.51803       -7.71783       -6.29933
H         -0.20427       -7.26804       -6.66355
H          1.11096       -6.76044       -7.71903

--Link1--
%chk=JID_7616.chk
%mem=8GB
%nprocshared=4
# B3LYP/6-311++G(d,p) empiricaldispersion=gd3bj scf=xqc pop=npa geom=check

CID_12307003_JID_7616_Energie_neutraal

0 1

--Link1--
%chk=JID_7616.chk
%mem=8GB
%nprocshared=4
# B3LYP/6-311++G(d,p) empiricaldispersion=gd3bj scf=xqc pop=npa geom=check

CID_12307003_JID_7616_Energie_kation

1 2

--Link1--
%chk=JID_7616.chk
%mem=8GB
%nprocshared=4
# B3LYP/6-311++G(d,p) empiricaldispersion=gd3bj scf=xqc pop=npa geom=check

CID_12307003_JID_7616_Energie_anion

-1 2
