%chk=JID_5577.chk
%mem=8GB
%nprocshared=4
# opt freq B3LYP/6-31G(d) empiricaldispersion=gd3bj scf=xqc

CID_90831735_JID_5577_neutraal

0 1
C          0.90352        0.01840        0.01878
C          0.52616        1.47984        0.09994
C          2.13710        2.52421       -3.26945
C          1.56581        1.31504       -3.97456
C          4.75213        0.27323       -0.50512
C          4.68229       -0.32117       -1.89363
C          2.57576       -3.45928       -0.69926
C          1.49482       -4.12188        0.09084
C          1.09224       -3.69867        1.29933
C          0.02290       -4.33616        2.07849
C         -0.86044       -3.52840        2.80602
C         -1.87106       -4.10016        3.58323
C         -2.00025       -5.48586        3.65011
C         -1.11752       -6.30016        2.94363
C         -0.10789       -5.72827        2.16505
H          0.01375       -0.61354        0.09550
H          1.58612       -0.24726        0.83134
H          1.39870       -0.19952       -0.93156
H         -0.14860        1.74868       -0.71821
H          0.02230        1.69445        1.04704
H          1.41712        2.11116        0.03355
H          1.33976        3.22062       -2.99339
H          2.66315        2.22535       -2.35849
H          2.84443        3.04915       -3.91829
H          2.36254        0.61625       -4.24615
H          0.85482        0.79253       -3.32796
H          1.04389        1.61433       -4.88831
H          4.45326       -0.46461        0.24519
H          4.08615        1.13704       -0.42201
H          5.77097        0.60109       -0.27852
H          5.34722       -1.18609       -1.97539
H          3.66377       -0.64799       -2.12198
H          4.98245        0.41699       -2.64329
H          2.17442       -3.09767       -1.65083
H          3.37482       -4.17590       -0.91185
H          3.01378       -2.60914       -0.16769
H          1.02216       -4.98178       -0.37796
H          1.54680       -2.82035        1.75178
H         -0.77481       -2.44494        2.76552
H         -2.55562       -3.46281        4.13662
H         -2.78502       -5.93099        4.25599
H         -1.20985       -7.38146        3.00166
H          0.58196       -6.38144        1.63656

--Link1--
%chk=JID_5577.chk
%mem=8GB
%nprocshared=4
# B3LYP/6-311++G(d,p) empiricaldispersion=gd3bj scf=xqc pop=npa geom=check

CID_90831735_JID_5577_Energie_neutraal

0 1

--Link1--
%chk=JID_5577.chk
%mem=8GB
%nprocshared=4
# B3LYP/6-311++G(d,p) empiricaldispersion=gd3bj scf=xqc pop=npa geom=check

CID_90831735_JID_5577_Energie_kation

1 2

--Link1--
%chk=JID_5577.chk
%mem=8GB
%nprocshared=4
# B3LYP/6-311++G(d,p) empiricaldispersion=gd3bj scf=xqc pop=npa geom=check

CID_90831735_JID_5577_Energie_anion

-1 2
