%chk=JID_7295.chk
%mem=8GB
%nprocshared=4
# opt freq B3LYP/6-31G(d) empiricaldispersion=gd3bj scf=xqc

CID_63764913_JID_7295_neutraal

0 1
C          1.26600       -0.09700        0.26800
C          0.35456        1.04987       -0.13693
C         -1.04241        0.43481       -0.16514
C         -0.83100       -1.07120       -0.38475
C          0.68424       -1.28633       -0.47977
N         -1.56034       -1.62547       -1.53422
C         -2.77179       -2.39938       -1.19716
C         -3.97354       -1.47990       -0.89072
N         -4.31070       -0.57518       -1.99501
C         -1.30603       -1.22911       -2.85426
N         -0.66645       -0.12093       -3.13053
N         -0.52651        0.23069       -4.43889
C         -1.14783       -0.36843       -5.50070
O         -0.95861        0.00021       -6.65653
N         -1.94226       -1.42905       -5.21532
C         -1.77037       -2.10844       -4.04772
O         -1.87470       -3.32352       -3.96085
H          1.20847       -0.26373        1.35015
H          2.31111        0.08894        0.00479
H          0.41945        1.89550        0.55405
H          0.62724        1.41088       -1.13522
H         -1.67953        0.91893       -0.91063
H         -1.52607        0.59034        0.80747
H         -1.16495       -1.57846        0.53099
H          1.04817       -1.28980       -1.51249
H          0.98735       -2.23752       -0.02989
H         -3.05384       -3.09318       -1.99175
H         -2.57449       -3.03117       -0.32226
H         -4.84689       -2.10182       -0.66675
H         -3.76464       -0.88107        0.00270
H         -5.07714        0.03255       -1.70729
H         -3.51394        0.04421       -2.15824
H          0.04379        1.04738       -4.63355
H         -2.21132       -1.98025       -6.01392

--Link1--
%chk=JID_7295.chk
%mem=8GB
%nprocshared=4
# B3LYP/6-311++G(d,p) empiricaldispersion=gd3bj scf=xqc pop=npa geom=check

CID_63764913_JID_7295_Energie_neutraal

0 1

--Link1--
%chk=JID_7295.chk
%mem=8GB
%nprocshared=4
# B3LYP/6-311++G(d,p) empiricaldispersion=gd3bj scf=xqc pop=npa geom=check

CID_63764913_JID_7295_Energie_kation

1 2

--Link1--
%chk=JID_7295.chk
%mem=8GB
%nprocshared=4
# B3LYP/6-311++G(d,p) empiricaldispersion=gd3bj scf=xqc pop=npa geom=check

CID_63764913_JID_7295_Energie_anion

-1 2
