%chk=JID_6293.chk
%mem=8GB
%nprocshared=4
# opt freq B3LYP/6-31G(d) empiricaldispersion=gd3bj scf=xqc

CID_92338332_JID_6293_neutraal

0 1
C          0.96083       -0.03213       -0.08622
C          0.33555        0.56229        1.19221
C          0.83578        2.02464        1.37082
C          0.53606        3.08562        0.33724
C         -0.49535        3.01046       -0.59462
C         -0.69833        4.07085       -1.47802
C          0.12235        5.18684       -1.40999
C          1.11820        5.19644       -0.45372
N          1.33572        4.18234        0.41209
C         -1.17986        0.34419        1.30543
C         -2.00723        1.23323        2.01720
C         -3.38258        1.01002        2.13755
C         -3.96077       -0.11873        1.56837
C         -3.16251       -1.02885        0.88543
C         -1.78825       -0.80319        0.76141
O          0.92551       -0.18720        2.28073
H          0.47048        0.32364       -0.99713
H          0.92611       -1.12764       -0.08281
H          2.02662        0.21886       -0.15071
H          0.51615        2.41069        2.34771
H          1.93228        1.98073        1.46386
H         -1.15388        2.15296       -0.66127
H         -1.49781        4.02261       -2.21216
H         -0.01222        6.02683       -2.08112
H          1.78896        6.04417       -0.34983
H         -1.60514        2.12359        2.49453
H         -4.00011        1.71965        2.68314
H         -5.02879       -0.29387        1.66607
H         -3.60590       -1.92242        0.45280
H         -1.20072       -1.55431        0.23868
H          0.21071       -0.47708        2.87383

--Link1--
%chk=JID_6293.chk
%mem=8GB
%nprocshared=4
# B3LYP/6-311++G(d,p) empiricaldispersion=gd3bj scf=xqc pop=npa geom=check

CID_92338332_JID_6293_Energie_neutraal

0 1

--Link1--
%chk=JID_6293.chk
%mem=8GB
%nprocshared=4
# B3LYP/6-311++G(d,p) empiricaldispersion=gd3bj scf=xqc pop=npa geom=check

CID_92338332_JID_6293_Energie_kation

1 2

--Link1--
%chk=JID_6293.chk
%mem=8GB
%nprocshared=4
# B3LYP/6-311++G(d,p) empiricaldispersion=gd3bj scf=xqc pop=npa geom=check

CID_92338332_JID_6293_Energie_anion

-1 2
