%chk=JID_6625.chk
%mem=8GB
%nprocshared=4
# opt freq B3LYP/6-31G(d) empiricaldispersion=gd3bj scf=xqc

CID_115463018_JID_6625_neutraal

0 1
C          0.93320        0.03670        0.06473
N         -0.03951       -0.14048       -1.02434
C         -0.08742       -1.56853       -1.40816
C         -1.44228       -2.04582       -1.98611
N         -1.72616       -1.63887       -3.36203
C          0.31473        0.72235       -2.16596
C          0.20121        2.21187       -1.87456
C          1.35352        3.00739       -2.03067
C          1.32065        4.38105       -1.79270
C          0.13526        4.98618       -1.39484
C         -1.01768        4.21849       -1.23868
C         -1.00742        2.83114       -1.48033
C         -2.29934        2.06191       -1.28260
C         -2.50729        1.46422        0.08652
O         -3.23593        0.51298        0.33549
O         -1.92704        2.13389        1.10131
H          0.65366       -0.57474        0.93061
H          0.95060        1.06958        0.42757
H          1.94811       -0.24245       -0.24105
H          0.73649       -1.82826       -2.08600
H          0.06411       -2.18238       -0.50935
H         -1.44525       -3.14197       -1.96786
H         -2.26425       -1.72536       -1.33605
H         -2.01225       -0.66209       -3.36119
H         -0.87933       -1.69720       -3.92293
H          1.32925        0.48275       -2.51325
H         -0.33581        0.53898       -3.02488
H          2.29477        2.55565       -2.33719
H          2.22148        4.97646       -1.91424
H          0.10636        6.05499       -1.20103
H         -1.93340        4.71002       -0.91528
H         -3.15121        2.72513       -1.47861
H         -2.36727        1.26042       -2.02490
H         -2.18040        1.61478        1.89110

--Link1--
%chk=JID_6625.chk
%mem=8GB
%nprocshared=4
# B3LYP/6-311++G(d,p) empiricaldispersion=gd3bj scf=xqc pop=npa geom=check

CID_115463018_JID_6625_Energie_neutraal

0 1

--Link1--
%chk=JID_6625.chk
%mem=8GB
%nprocshared=4
# B3LYP/6-311++G(d,p) empiricaldispersion=gd3bj scf=xqc pop=npa geom=check

CID_115463018_JID_6625_Energie_kation

1 2

--Link1--
%chk=JID_6625.chk
%mem=8GB
%nprocshared=4
# B3LYP/6-311++G(d,p) empiricaldispersion=gd3bj scf=xqc pop=npa geom=check

CID_115463018_JID_6625_Energie_anion

-1 2
