%chk=JID_5660.chk
%mem=8GB
%nprocshared=4
# opt freq B3LYP/6-31G(d) empiricaldispersion=gd3bj scf=xqc

CID_148947420_JID_5660_neutraal

0 1
C          1.03735       -0.01294        0.09186
C         -0.34952        0.26269       -0.47123
C         -0.60358        1.70961       -0.92507
C         -1.43888        1.92839        0.37170
C         -1.43085        0.47674        0.60458
C         -1.56532        0.28381        2.07783
C         -3.04647        0.11026        1.88497
C         -2.85595        1.67186        0.72771
C         -3.34707        1.28388       -0.78109
C         -3.20802        0.24994        0.17275
C         -4.32569        0.42287        1.27344
C         -5.52752       -0.50876        1.31701
C         -3.21860       -1.01411       -0.56233
C         -3.96283       -0.01622       -1.55716
C         -3.01573       -1.42127        0.95603
H          1.07714       -1.01140        0.53917
H          1.31764        0.71500        0.86057
H          1.78877        0.02890       -0.70325
H         -0.57051       -0.46489       -1.25568
H          0.29139        2.33760       -0.99416
H         -1.14956        1.80805       -1.86871
H         -0.88756        2.53877        1.09815
H         -1.30483        1.12598        2.72706
H         -1.07230       -0.61291        2.46234
H         -3.30846        2.59033        1.15052
H         -4.16206        2.02165       -0.85046
H         -4.71491        1.39738        1.60557
H         -5.63107       -0.97132        2.30397
H         -6.43663        0.08232        1.14894
H         -5.55682       -1.28064        0.54367
H         -2.34190       -1.40374       -1.08533
H         -5.05827       -0.08560       -1.52846
H         -3.65071       -0.09232       -2.60456
H         -2.05668       -1.94502        1.09220
H         -3.76808       -2.12734        1.32789

--Link1--
%chk=JID_5660.chk
%mem=8GB
%nprocshared=4
# B3LYP/6-311++G(d,p) empiricaldispersion=gd3bj scf=xqc pop=npa geom=check

CID_148947420_JID_5660_Energie_neutraal

0 1

--Link1--
%chk=JID_5660.chk
%mem=8GB
%nprocshared=4
# B3LYP/6-311++G(d,p) empiricaldispersion=gd3bj scf=xqc pop=npa geom=check

CID_148947420_JID_5660_Energie_kation

1 2

--Link1--
%chk=JID_5660.chk
%mem=8GB
%nprocshared=4
# B3LYP/6-311++G(d,p) empiricaldispersion=gd3bj scf=xqc pop=npa geom=check

CID_148947420_JID_5660_Energie_anion

-1 2
