%chk=JID_6917.chk
%mem=8GB
%nprocshared=4
# opt freq B3LYP/6-31G(d) empiricaldispersion=gd3bj scf=xqc

CID_63175984_JID_6917_neutraal

0 1
C          1.26600       -0.09700        0.26800
C          0.45608        1.10388       -0.18503
C         -0.95855        0.77504        0.27470
C         -1.06873       -0.75767        0.21310
C          0.35543       -1.27421       -0.04663
C         -2.05369       -1.21138       -0.86707
N         -3.14541       -1.87066       -0.66686
C         -3.59679       -2.27906        0.65796
C         -2.92233       -3.60211        1.04780
C         -3.21494       -4.73689        0.07573
S         -4.95941       -5.04915       -0.05424
O         -5.18267       -5.88948       -1.21511
O         -5.43924       -5.45730        1.25349
C         -5.61901       -3.43655       -0.40243
C         -5.12882       -2.40403        0.60317
N         -1.78068       -0.89449       -2.16863
H          1.45471       -0.04271        1.34674
H          2.22949       -0.16867       -0.24453
H          0.82357        2.04031        0.24442
H          0.48955        1.19363       -1.27695
H         -1.71048        1.29884       -0.32417
H         -1.08680        1.10353        1.31375
H         -1.38169       -1.11255        1.19705
H          0.49928       -1.59124       -1.08564
H          0.58990       -2.13771        0.58498
H         -3.37777       -1.51491        1.41165
H         -3.25365       -3.88569        2.05442
H         -1.83609       -3.46845        1.10310
H         -2.74736       -5.66564        0.41750
H         -2.84100       -4.51791       -0.92912
H         -5.33228       -3.17563       -1.42576
H         -6.70968       -3.52078       -0.36632
H         -5.50096       -2.65920        1.60320
H         -5.56354       -1.43095        0.34289
H         -1.22997       -0.06566       -2.35284
H         -2.58183       -1.00359       -2.78149

--Link1--
%chk=JID_6917.chk
%mem=8GB
%nprocshared=4
# B3LYP/6-311++G(d,p) empiricaldispersion=gd3bj scf=xqc pop=npa geom=check

CID_63175984_JID_6917_Energie_neutraal

0 1

--Link1--
%chk=JID_6917.chk
%mem=8GB
%nprocshared=4
# B3LYP/6-311++G(d,p) empiricaldispersion=gd3bj scf=xqc pop=npa geom=check

CID_63175984_JID_6917_Energie_kation

1 2

--Link1--
%chk=JID_6917.chk
%mem=8GB
%nprocshared=4
# B3LYP/6-311++G(d,p) empiricaldispersion=gd3bj scf=xqc pop=npa geom=check

CID_63175984_JID_6917_Energie_anion

-1 2
