%chk=JID_9573.chk
%mem=8GB
%nprocshared=4
# opt freq B3LYP/6-31G(d) empiricaldispersion=gd3bj scf=xqc

CID_80937639_JID_9573_neutraal

0 1
C          1.04857       -0.00585        0.08721
C          0.54600       -0.30291        1.49354
C          0.91743        0.77886        2.47011
N          0.64030        2.04489        2.12593
C          0.96752        3.01794        2.98715
C          1.54139        2.72872        4.20840
C          1.79016        1.39983        4.49284
N          1.47754        0.41297        3.63229
N          2.35069        1.07194        5.76075
N          2.58193       -0.30876        6.00847
N          0.72595        4.37567        2.65666
C          0.01097        4.83490        1.52555
C         -1.17494        4.21978        1.10079
C         -1.87324        4.68672       -0.01525
C         -1.39647        5.78770       -0.72220
C         -0.22772        6.42819       -0.30279
C          0.46295        5.96114        0.82443
C          0.27230        7.55725       -1.02961
N          0.68536        8.47041       -1.61566
H          0.59193        0.90280       -0.31959
H          0.80049       -0.83398       -0.58431
H          2.13557        0.12845        0.07625
H         -0.54464       -0.40699        1.48444
H          0.96273       -1.25957        1.82930
H          1.76968        3.50740        4.92318
H          3.16601        1.66273        5.93868
H          1.67131       -0.76293        6.13743
H          2.92796       -0.74119        5.14246
H          1.56903        4.91519        2.82065
H         -1.56711        3.36136        1.64248
H         -2.78538        4.18556       -0.32974
H         -1.94062        6.14004       -1.59619
H          1.37208        6.46895        1.13887

--Link1--
%chk=JID_9573.chk
%mem=8GB
%nprocshared=4
# B3LYP/6-311++G(d,p) empiricaldispersion=gd3bj scf=xqc pop=npa geom=check

CID_80937639_JID_9573_Energie_neutraal

0 1

--Link1--
%chk=JID_9573.chk
%mem=8GB
%nprocshared=4
# B3LYP/6-311++G(d,p) empiricaldispersion=gd3bj scf=xqc pop=npa geom=check

CID_80937639_JID_9573_Energie_kation

1 2

--Link1--
%chk=JID_9573.chk
%mem=8GB
%nprocshared=4
# B3LYP/6-311++G(d,p) empiricaldispersion=gd3bj scf=xqc pop=npa geom=check

CID_80937639_JID_9573_Energie_anion

-1 2
