%chk=JID_9039.chk
%mem=8GB
%nprocshared=4
# opt freq B3LYP/6-31G(d) empiricaldispersion=gd3bj scf=xqc

CID_130269679_JID_9039_neutraal

0 1
C          0.91262       -0.01998        0.04433
C         -0.07291        1.10412       -0.27734
C          0.59356        2.47550       -0.11432
C         -0.22037        3.63503       -0.70463
C          0.47605        4.33108       -1.88586
C          0.47977        3.55589       -3.23080
C         -0.83866        2.75450       -3.45678
C         -1.53109        2.10186       -2.21062
C         -0.72151        0.88598       -1.65699
C         -1.62082        3.19559       -1.12461
C         -2.91852        1.59216       -2.67904
C         -2.99783        0.57846       -3.65705
C         -4.22785        0.09534       -4.11044
C         -5.41054        0.61508       -3.59738
C         -5.36066        1.61609       -2.63265
C         -4.12878        2.09999       -2.17865
C          1.70056        2.60549       -3.30163
C          0.70622        4.56238       -4.41348
N         -0.28986        5.62470       -4.53558
H          1.74921       -0.03016       -0.66232
H          0.41782       -0.99579       -0.00277
H          1.32234        0.09971        1.05284
H         -0.87565        1.04042        0.47110
H          0.71252        2.65635        0.96342
H          1.61783        2.47342       -0.50065
H         -0.32552        4.39172        0.08499
H          1.50038        4.60770       -1.60379
H         -0.04864        5.28565       -2.02248
H         -0.65832        1.99762       -4.23218
H         -1.58329        3.42928       -3.89823
H          0.02209        0.55784       -2.39119
H         -1.37886        0.01255       -1.53771
H         -2.17411        4.06896       -1.49644
H         -2.17082        2.83784       -0.24424
H         -2.09082        0.14645       -4.07505
H         -4.25880       -0.68795       -4.86299
H         -6.36878        0.24128       -3.94697
H         -6.28299        2.02558       -2.22848
H         -4.14882        2.88314       -1.42630
H          1.74290        2.09293       -4.27002
H          2.63845        3.16194       -3.18717
H          1.69841        1.83357       -2.53569
H          1.68408        5.04502       -4.29228
H          0.74040        4.01433       -5.36340
H         -0.02763        6.24311       -5.30254
H         -1.19316        5.23206       -4.79528

--Link1--
%chk=JID_9039.chk
%mem=8GB
%nprocshared=4
# B3LYP/6-311++G(d,p) empiricaldispersion=gd3bj scf=xqc pop=npa geom=check

CID_130269679_JID_9039_Energie_neutraal

0 1

--Link1--
%chk=JID_9039.chk
%mem=8GB
%nprocshared=4
# B3LYP/6-311++G(d,p) empiricaldispersion=gd3bj scf=xqc pop=npa geom=check

CID_130269679_JID_9039_Energie_kation

1 2

--Link1--
%chk=JID_9039.chk
%mem=8GB
%nprocshared=4
# B3LYP/6-311++G(d,p) empiricaldispersion=gd3bj scf=xqc pop=npa geom=check

CID_130269679_JID_9039_Energie_anion

-1 2
