%chk=JID_10341.chk
%mem=8GB
%nprocshared=4
# opt freq B3LYP/6-31G(d) empiricaldispersion=gd3bj scf=xqc

CID_72852442_JID_10341_neutraal

0 1
C          1.30600        0.17900       -0.14100
C          0.87320       -1.26696       -0.33911
C         -0.64755       -1.23628       -0.35644
N         -1.03089        0.04132        0.28284
C          0.02138        0.99507       -0.16279
S         -1.26890        0.06673        1.95556
O         -0.09802       -0.49427        2.58645
O         -1.76174        1.38047        2.28899
N         -2.55031       -0.98400        2.12446
C         -2.30975       -2.38735        2.48286
C         -2.55135       -2.74614        3.95919
C         -1.53124       -2.14882        4.92935
C         -1.92637       -0.77784        5.39512
C         -0.98199        0.04274        6.02661
C         -1.33056        1.32657        6.44700
C         -2.62580        1.79845        6.24477
C         -3.57298        0.98597        5.62290
C         -3.22783       -0.30036        5.21126
O         -4.19966       -1.00237        4.54598
C         -3.95482       -2.40748        4.45394
H          1.81744        0.28937        0.82197
H          2.00449        0.51012       -0.91596
H          1.23808       -1.88470        0.48926
H          1.27238       -1.69454       -1.26428
H         -1.00978       -1.21068       -1.39231
H         -1.09163       -2.11990        0.09833
H          0.08854        1.89407        0.45626
H         -0.21712        1.31946       -1.18295
H         -3.30774       -0.52169        2.63576
H         -2.99561       -2.98261        1.86654
H         -1.30430       -2.70722        2.19044
H         -2.43618       -3.83801        4.01019
H         -1.47653       -2.78875        5.82006
H         -0.53031       -2.14564        4.48509
H          0.03904       -0.30478        6.16792
H         -0.58651        1.96484        6.91612
H         -2.89366        2.80447        6.55531
H         -4.57674        1.36179        5.44678
H         -4.70360       -2.82431        3.77115
H         -4.14023       -2.85869        5.43746

--Link1--
%chk=JID_10341.chk
%mem=8GB
%nprocshared=4
# B3LYP/6-311++G(d,p) empiricaldispersion=gd3bj scf=xqc pop=npa geom=check

CID_72852442_JID_10341_Energie_neutraal

0 1

--Link1--
%chk=JID_10341.chk
%mem=8GB
%nprocshared=4
# B3LYP/6-311++G(d,p) empiricaldispersion=gd3bj scf=xqc pop=npa geom=check

CID_72852442_JID_10341_Energie_kation

1 2

--Link1--
%chk=JID_10341.chk
%mem=8GB
%nprocshared=4
# B3LYP/6-311++G(d,p) empiricaldispersion=gd3bj scf=xqc pop=npa geom=check

CID_72852442_JID_10341_Energie_anion

-1 2
