%chk=JID_10419.chk
%mem=8GB
%nprocshared=4
# opt freq B3LYP/6-31G(d) empiricaldispersion=gd3bj scf=xqc

CID_62738115_JID_10419_neutraal

0 1
C          1.04460        0.06900        0.05701
C          0.83031       -0.31605        1.52353
C          1.25017        0.82455        2.45359
C         -0.60242       -0.74804        1.79449
C         -1.69352        0.10311        1.52873
C         -3.00945       -0.30110        1.79166
C         -3.22262       -1.56857        2.36055
C         -2.14942       -2.41821        2.62943
C         -0.84850       -2.01248        2.34423
N         -4.14073        0.52414        1.52456
C         -4.30784        1.69378        0.78662
N         -5.56981        2.07349        0.89994
N         -6.19585        1.14018        1.66694
N         -5.35840        0.18455        2.02453
C         -3.27732        2.34219       -0.07469
N         -3.84648        3.38353       -0.93254
C         -2.89181        3.91796       -1.91089
C         -2.56080        2.95847       -3.06590
O         -3.77676        2.45792       -3.62747
C         -3.53134        1.58264       -4.71979
H          0.47219        0.95978       -0.22358
H          0.74222       -0.74625       -0.60969
H          2.10211        0.28255       -0.13292
H          1.49518       -1.16556        1.72931
H          0.66370        1.73293        2.27724
H          1.11870        0.54179        3.50403
H          2.30589        1.07515        2.30368
H         -1.46227        1.09131        1.15630
H         -4.22555       -1.92465        2.59404
H         -2.33055       -3.39866        3.06386
H         -0.02600       -2.68962        2.56616
H         -2.52464        2.81387        0.56510
H         -2.80262        1.57007       -0.68829
H         -4.63692        2.98663       -1.45143
H         -3.36001        4.81131       -2.34111
H         -1.97234        4.25291       -1.41756
H         -1.99731        3.49925       -3.83501
H         -1.94991        2.12133       -2.71058
H         -3.00371        2.10875       -5.52108
H         -2.95071        0.71514       -4.39171
H         -4.49336        1.23396       -5.10469

--Link1--
%chk=JID_10419.chk
%mem=8GB
%nprocshared=4
# B3LYP/6-311++G(d,p) empiricaldispersion=gd3bj scf=xqc pop=npa geom=check

CID_62738115_JID_10419_Energie_neutraal

0 1

--Link1--
%chk=JID_10419.chk
%mem=8GB
%nprocshared=4
# B3LYP/6-311++G(d,p) empiricaldispersion=gd3bj scf=xqc pop=npa geom=check

CID_62738115_JID_10419_Energie_kation

1 2

--Link1--
%chk=JID_10419.chk
%mem=8GB
%nprocshared=4
# B3LYP/6-311++G(d,p) empiricaldispersion=gd3bj scf=xqc pop=npa geom=check

CID_62738115_JID_10419_Energie_anion

-1 2
