%chk=JID_8331.chk
%mem=8GB
%nprocshared=4
# opt freq B3LYP/6-31G(d) empiricaldispersion=gd3bj scf=xqc

CID_116401099_JID_8331_neutraal

0 1
C          0.92010        0.00210        0.06009
C          1.30304       -1.45907       -0.11024
C          2.79473       -1.80483       -0.28866
C          3.67269       -1.53437        0.95517
N          4.01233       -0.12532        1.19623
C          4.84195        0.41317        0.10999
C          4.09758        0.48906       -1.22619
S          3.51783       -1.12693       -1.83533
C          4.58894        0.10773        2.53143
C          5.92386       -0.54399        2.82914
C          5.97537       -1.83125        3.39261
C          7.20824       -2.40545        3.64055
C          8.38614       -1.70446        3.38994
C          9.54624       -2.52519        3.83538
C          8.86311       -3.89429        4.00983
N          7.43076       -3.65739        4.26497
C          8.36982       -0.43041        2.85384
C          7.12955        0.14488        2.56596
H          1.43057        0.46575        0.90699
H         -0.15620        0.07786        0.25068
H          1.12264        0.58112       -0.84386
H          0.93107       -2.00591        0.76625
H          0.74222       -1.86083       -0.96466
H          2.82050       -2.89217       -0.44054
H          3.13429       -1.93156        1.82578
H          4.58865       -2.13394        0.86335
H          5.14544        1.43776        0.36022
H          5.76396       -0.16877       -0.01699
H          3.24909        1.17505       -1.15368
H          4.76763        0.90324       -1.98730
H          4.68154        1.19042        2.69303
H          3.86322       -0.20852        3.29321
H          5.06517       -2.36781        3.63881
H         10.35091       -2.56855        3.09659
H          9.92913       -2.15101        4.79046
H          9.31468       -4.46594        4.82701
H          8.96847       -4.48708        3.09129
H          6.80707       -4.36998        3.89572
H          9.28980        0.11410        2.66998
H          7.09981        1.14851        2.14662

--Link1--
%chk=JID_8331.chk
%mem=8GB
%nprocshared=4
# B3LYP/6-311++G(d,p) empiricaldispersion=gd3bj scf=xqc pop=npa geom=check

CID_116401099_JID_8331_Energie_neutraal

0 1

--Link1--
%chk=JID_8331.chk
%mem=8GB
%nprocshared=4
# B3LYP/6-311++G(d,p) empiricaldispersion=gd3bj scf=xqc pop=npa geom=check

CID_116401099_JID_8331_Energie_kation

1 2

--Link1--
%chk=JID_8331.chk
%mem=8GB
%nprocshared=4
# B3LYP/6-311++G(d,p) empiricaldispersion=gd3bj scf=xqc pop=npa geom=check

CID_116401099_JID_8331_Energie_anion

-1 2
