%chk=JID_4595.chk
%mem=8GB
%nprocshared=4
# opt freq B3LYP/6-31G(d) empiricaldispersion=gd3bj scf=xqc

CID_135200617_JID_4595_neutraal

0 1
C          0.93470       -0.06872        0.03185
C          0.43032        0.16078       -1.39484
C          0.89928       -0.98311       -2.29775
C         -1.10579        0.27699       -1.45825
C         -1.66098        1.46962       -0.72555
C         -1.46110        2.76831       -1.22517
C         -1.96660        3.89873       -0.55516
C         -2.68857        3.76369        0.63154
C         -2.88761        2.48761        1.12248
C         -2.38146        1.37004        0.45441
N         -2.72019        0.22603        1.16529
C         -3.45218        0.52953        2.30522
O         -3.88226       -0.27833        3.11171
C         -3.61576        2.04980        2.35822
H          0.48506       -0.96504        0.47253
H          0.70132        0.78262        0.67889
H          2.02249       -0.19704        0.04239
H          0.88236        1.08799       -1.76921
H          0.49019       -1.94402       -1.96705
H          0.58190       -0.81730       -3.33268
H          1.99169       -1.06051       -2.29280
H         -1.42355        0.35600       -2.50694
H         -1.56281       -0.64920       -1.08975
H         -0.90494        2.91528       -2.14958
H         -1.79120        4.88912       -0.96991
H         -3.07808        4.63536        1.14707
H         -2.48099       -0.72036        0.91420
H         -4.67642        2.30791        2.30776
H         -3.13921        2.43989        3.26087

--Link1--
%chk=JID_4595.chk
%mem=8GB
%nprocshared=4
# B3LYP/6-311++G(d,p) empiricaldispersion=gd3bj scf=xqc pop=npa geom=check

CID_135200617_JID_4595_Energie_neutraal

0 1

--Link1--
%chk=JID_4595.chk
%mem=8GB
%nprocshared=4
# B3LYP/6-311++G(d,p) empiricaldispersion=gd3bj scf=xqc pop=npa geom=check

CID_135200617_JID_4595_Energie_kation

1 2

--Link1--
%chk=JID_4595.chk
%mem=8GB
%nprocshared=4
# B3LYP/6-311++G(d,p) empiricaldispersion=gd3bj scf=xqc pop=npa geom=check

CID_135200617_JID_4595_Energie_anion

-1 2
