%chk=JID_5315.chk
%mem=8GB
%nprocshared=4
# opt freq B3LYP/6-31G(d) empiricaldispersion=gd3bj scf=xqc

CID_88904799_JID_5315_neutraal

0 1
C          1.03755        0.08561        0.03550
O          0.96831        0.18458        1.44420
C          1.57225       -0.87997        2.17668
C          0.89242       -2.27744        2.01912
C          1.28214       -3.12476        0.78801
C          2.60184       -3.91279        0.85498
C          2.50337       -5.25446        1.58021
O          1.61779       -6.11678        0.87982
S          0.69537       -7.12998        1.76154
O          1.52007       -7.76258        2.76934
O         -0.54664       -6.46144        2.08477
C          0.37722       -8.31341        0.47801
O          1.14631       -3.05245        3.20203
O          2.98126       -0.98506        1.95520
C          3.68288        0.15582        2.43390
H          0.81124        1.07048       -0.38347
H          0.27662       -0.60715       -0.33187
H          2.03396       -0.20763       -0.30672
H          1.43576       -0.60574        3.23139
H         -0.19106       -2.11272        1.98013
H          0.46857       -3.83952        0.60868
H          1.31133       -2.49604       -0.10429
H          2.90538       -4.11917       -0.17994
H          3.39749       -3.31222        1.30309
H          3.48928       -5.73210        1.58976
H          2.19341       -5.12589        2.62010
H         -0.12424       -7.81162       -0.35135
H          1.32565       -8.74712        0.15567
H         -0.26859       -9.09205        0.88948
H          2.08400       -2.91736        3.43169
H          3.36707        1.05990        1.90546
H          3.53432        0.27535        3.51148
H          4.74925        0.00225        2.24776

--Link1--
%chk=JID_5315.chk
%mem=8GB
%nprocshared=4
# B3LYP/6-311++G(d,p) empiricaldispersion=gd3bj scf=xqc pop=npa geom=check

CID_88904799_JID_5315_Energie_neutraal

0 1

--Link1--
%chk=JID_5315.chk
%mem=8GB
%nprocshared=4
# B3LYP/6-311++G(d,p) empiricaldispersion=gd3bj scf=xqc pop=npa geom=check

CID_88904799_JID_5315_Energie_kation

1 2

--Link1--
%chk=JID_5315.chk
%mem=8GB
%nprocshared=4
# B3LYP/6-311++G(d,p) empiricaldispersion=gd3bj scf=xqc pop=npa geom=check

CID_88904799_JID_5315_Energie_anion

-1 2
