%chk=JID_4970.chk
%mem=8GB
%nprocshared=4
# opt freq B3LYP/6-31G(d) empiricaldispersion=gd3bj scf=xqc

CID_61048802_JID_4970_neutraal

0 1
C          1.01503       -0.09882        0.00286
C          0.82323       -1.44198       -0.70492
C          1.64264       -2.51754        0.00771
N         -0.60478       -1.74022       -0.69139
C         -1.17872       -2.22652       -1.95365
C         -0.70335       -3.65010       -2.35492
O         -0.86364       -4.61243       -1.30981
C         -2.69648       -2.05085       -1.89355
C         -3.59232       -3.11210       -1.68882
C         -4.96591       -2.87298       -1.63740
C         -5.47691       -1.58986       -1.77732
C         -4.60419       -0.52284       -1.96611
C         -3.22721       -0.75124       -2.02027
O         -5.85349       -3.89176       -1.44561
H          0.68028       -0.13925        1.04587
H          0.45356        0.69501       -0.50294
H          2.07125        0.19205        0.00084
H          1.19700       -1.33098       -1.73007
H          1.28544       -2.68603        1.02988
H          1.60724       -3.47068       -0.52684
H          2.69577       -2.22132        0.06897
H         -0.91121       -2.28669        0.10813
H         -0.84922       -1.56494       -2.76798
H         -1.25154       -4.01193       -3.23154
H          0.35872       -3.63382       -2.62218
H         -0.44972       -4.23256       -0.51736
H         -3.22655       -4.12624       -1.56636
H         -6.54877       -1.42234       -1.73224
H         -4.99293        0.48683       -2.06516
H         -2.55669        0.09645       -2.15211
H         -5.35387       -4.72042       -1.35918

--Link1--
%chk=JID_4970.chk
%mem=8GB
%nprocshared=4
# B3LYP/6-311++G(d,p) empiricaldispersion=gd3bj scf=xqc pop=npa geom=check

CID_61048802_JID_4970_Energie_neutraal

0 1

--Link1--
%chk=JID_4970.chk
%mem=8GB
%nprocshared=4
# B3LYP/6-311++G(d,p) empiricaldispersion=gd3bj scf=xqc pop=npa geom=check

CID_61048802_JID_4970_Energie_kation

1 2

--Link1--
%chk=JID_4970.chk
%mem=8GB
%nprocshared=4
# B3LYP/6-311++G(d,p) empiricaldispersion=gd3bj scf=xqc pop=npa geom=check

CID_61048802_JID_4970_Energie_anion

-1 2
