%chk=JID_9666.chk
%mem=8GB
%nprocshared=4
# opt freq B3LYP/6-31G(d) empiricaldispersion=gd3bj scf=xqc

CID_22388759_JID_9666_neutraal

0 1
C          0.93933       -0.07890       -0.00968
C          0.85134       -0.68652       -1.40133
C          1.21037       -2.17405       -1.44297
C          0.34227       -3.08778       -0.57180
C         -1.16056       -3.04143       -0.86414
C         -1.56469       -3.43124       -2.28968
C         -1.14761       -4.83916       -2.73544
C         -1.62268       -5.99085       -1.84106
C         -3.11895       -6.09212       -1.74453
C         -3.82805       -7.16345       -2.13458
C         -5.32761       -7.25147       -2.02359
C         -6.02991       -7.39353       -3.39067
C         -5.73333       -8.75870       -4.02940
C         -7.56107       -7.22542       -3.27061
C         -8.05348       -5.84618       -2.81134
C         -7.56350       -4.65511       -3.64116
C         -7.88283       -4.71751       -5.13867
C         -9.36742       -4.83320       -5.49247
C        -10.19852       -3.65402       -5.01163
H          0.18494       -0.49994        0.66125
H          0.77031        1.00154       -0.06067
H          1.92748       -0.24644        0.43025
H         -0.15242       -0.52392       -1.80864
H          1.54233       -0.14743       -2.06079
H          1.17006       -2.51507       -2.48414
H          2.25505       -2.29278       -1.12841
H          0.70454       -4.11691       -0.68037
H          0.49758       -2.83400        0.48372
H         -1.67319       -3.69529       -0.14878
H         -1.54114       -2.03388       -0.65902
H         -2.65327       -3.33136       -2.37889
H         -1.14725       -2.70596       -2.99832
H         -1.52302       -5.00033       -3.75449
H         -0.05435       -4.88436       -2.80831
H         -1.20682       -6.92532       -2.23859
H         -1.21112       -5.88290       -0.83158
H         -3.63829       -5.23878       -1.31344
H         -3.30980       -8.02892       -2.54073
H         -5.58006       -8.10595       -1.38344
H         -5.69562       -6.36025       -1.50421
H         -5.64198       -6.62796       -4.07342
H         -6.05766       -9.57882       -3.37972
H         -6.25554       -8.86039       -4.98705
H         -4.66546       -8.88516       -4.23083
H         -8.02363       -7.45203       -4.23936
H         -7.95107       -7.97659       -2.57108
H         -9.15025       -5.85692       -2.80814
H         -7.76585       -5.68258       -1.76645
H         -7.99059       -3.73830       -3.21730
H         -6.47836       -4.55144       -3.52115
H         -7.47604       -3.81590       -5.61402
H         -7.34967       -5.56140       -5.59184
H         -9.45651       -4.89846       -6.58371
H         -9.78603       -5.76309       -5.09293
H         -9.79103       -2.70865       -5.38355
H        -11.22674       -3.74593       -5.37606
H        -10.23719       -3.60920       -3.91937

--Link1--
%chk=JID_9666.chk
%mem=8GB
%nprocshared=4
# B3LYP/6-311++G(d,p) empiricaldispersion=gd3bj scf=xqc pop=npa geom=check

CID_22388759_JID_9666_Energie_neutraal

0 1

--Link1--
%chk=JID_9666.chk
%mem=8GB
%nprocshared=4
# B3LYP/6-311++G(d,p) empiricaldispersion=gd3bj scf=xqc pop=npa geom=check

CID_22388759_JID_9666_Energie_kation

1 2

--Link1--
%chk=JID_9666.chk
%mem=8GB
%nprocshared=4
# B3LYP/6-311++G(d,p) empiricaldispersion=gd3bj scf=xqc pop=npa geom=check

CID_22388759_JID_9666_Energie_anion

-1 2
