%chk=JID_8654.chk
%mem=8GB
%nprocshared=4
# opt freq B3LYP/6-31G(d) empiricaldispersion=gd3bj scf=xqc

CID_149841430_JID_8654_neutraal

0 1
C          1.03728       -0.07417        0.05576
C          0.35854       -1.45233        0.05483
C          0.74579       -2.27568        1.28985
C          0.61287       -1.50781        2.56913
O         -0.40532       -1.31633        3.21110
O          1.78724       -1.00181        2.99746
O         -1.04949       -1.24273        0.01228
O          0.81882       -2.07316       -1.16455
C          0.56081       -3.40420       -1.37865
C         -0.70743       -3.96062       -1.19770
C         -0.92268       -5.31264       -1.45334
C          0.12379       -6.11288       -1.90723
C          1.39953       -5.57130       -2.12266
C          2.44985       -6.37767       -2.59228
C          3.71956       -5.84421       -2.81307
C          3.95614       -4.49699       -2.56830
C          2.92268       -3.68325       -2.10025
C          1.62855       -4.19750       -1.86617
H          0.66333        0.56860        0.85916
H          0.83602        0.45203       -0.88557
H          2.12549       -0.16822        0.13885
H          0.11450       -3.16563        1.39702
H          1.77485       -2.64754        1.20556
H          1.55594       -0.55313        3.83875
H         -1.20738       -0.57080       -0.67166
H         -1.54761       -3.35824       -0.86823
H         -1.91052       -5.74146       -1.30491
H         -0.06777       -7.16600       -2.10179
H          2.28430       -7.43414       -2.79247
H          4.52094       -6.48114       -3.17791
H          4.94275       -4.07552       -2.74126
H          3.13215       -2.63118       -1.91839

--Link1--
%chk=JID_8654.chk
%mem=8GB
%nprocshared=4
# B3LYP/6-311++G(d,p) empiricaldispersion=gd3bj scf=xqc pop=npa geom=check

CID_149841430_JID_8654_Energie_neutraal

0 1

--Link1--
%chk=JID_8654.chk
%mem=8GB
%nprocshared=4
# B3LYP/6-311++G(d,p) empiricaldispersion=gd3bj scf=xqc pop=npa geom=check

CID_149841430_JID_8654_Energie_kation

1 2

--Link1--
%chk=JID_8654.chk
%mem=8GB
%nprocshared=4
# B3LYP/6-311++G(d,p) empiricaldispersion=gd3bj scf=xqc pop=npa geom=check

CID_149841430_JID_8654_Energie_anion

-1 2
