%chk=JID_2452.chk
%mem=8GB
%nprocshared=4
# opt freq B3LYP/6-31G(d) empiricaldispersion=gd3bj scf=xqc

CID_64268376_JID_2452_neutraal

0 1
C          1.09652        0.00823        0.02482
C          0.50891       -0.98964       -0.98082
C          1.13598       -2.42125       -0.87619
N          0.96130       -3.16410        0.38164
C          1.08247       -4.61317        0.17636
C          1.40526       -5.19285        1.55142
C          1.74513       -3.98314        2.42111
C          1.96899       -2.85644        1.40521
N          2.87278       -4.22121        3.31935
N         -0.97097       -0.87578       -0.99875
C         -1.54992       -1.39286       -2.23842
C         -1.63518       -1.48910        0.15094
H          0.76127       -0.16992        1.04925
H          0.80375        1.03180       -0.23733
H          2.19113       -0.02985        0.01179
H          0.85175       -0.60868       -1.95461
H          0.69597       -3.01053       -1.69175
H          2.20404       -2.35332       -1.12606
H          0.15790       -5.03747       -0.22843
H          1.90127       -4.85397       -0.51441
H          2.23850       -5.90093        1.47124
H          0.55008       -5.73408        1.97197
H          0.86918       -3.73420        3.03486
H          2.98647       -2.89646        0.99422
H          1.82037       -1.88430        1.87972
H          2.66102       -5.01770        3.91951
H          3.69489       -4.48707        2.77892
H         -1.42037       -2.47499       -2.34594
H         -2.62357       -1.17570       -2.27721
H         -1.10533       -0.90214       -3.11127
H         -1.59855       -2.58296        0.12880
H         -1.21972       -1.14115        1.10106
H         -2.69293       -1.20033        0.16246

--Link1--
%chk=JID_2452.chk
%mem=8GB
%nprocshared=4
# B3LYP/6-311++G(d,p) empiricaldispersion=gd3bj scf=xqc pop=npa geom=check

CID_64268376_JID_2452_Energie_neutraal

0 1

--Link1--
%chk=JID_2452.chk
%mem=8GB
%nprocshared=4
# B3LYP/6-311++G(d,p) empiricaldispersion=gd3bj scf=xqc pop=npa geom=check

CID_64268376_JID_2452_Energie_kation

1 2

--Link1--
%chk=JID_2452.chk
%mem=8GB
%nprocshared=4
# B3LYP/6-311++G(d,p) empiricaldispersion=gd3bj scf=xqc pop=npa geom=check

CID_64268376_JID_2452_Energie_anion

-1 2
