%chk=JID_6595.chk
%mem=8GB
%nprocshared=4
# opt freq B3LYP/6-31G(d) empiricaldispersion=gd3bj scf=xqc

CID_58543801_JID_6595_neutraal

0 1
C          2.49200        0.00400       -0.01400
C          0.99320       -0.05405       -0.01977
C          0.33565       -1.27943        0.15428
C         -1.06393       -1.35402        0.10701
C         -1.80966       -0.18986       -0.11683
C         -1.15929        1.03170       -0.29968
C          0.23440        1.09755       -0.25847
C         -1.69952       -2.68583        0.29448
O         -1.08985       -3.67261        0.67151
O         -3.00878       -2.63368       -0.04978
C         -3.71115       -3.88400        0.00579
C         -3.70639       -4.48932       -1.35039
C         -3.39412       -4.02624       -2.61360
C         -3.59293       -5.11099       -3.50066
C         -4.02016       -6.16382       -2.72726
O         -4.09903       -5.79524       -1.42329
H          2.90464       -0.69870        0.71753
H          2.87990       -0.24600       -1.00626
H          2.84577        1.00334        0.26048
H          0.91737       -2.18507        0.32280
H         -2.89568       -0.21806       -0.15178
H         -1.73897        1.93430       -0.47799
H          0.72578        2.05624       -0.41269
H         -3.29387       -4.56408        0.75663
H         -4.74170       -3.66243        0.30244
H         -3.05665       -3.02872       -2.85869
H         -3.44117       -5.12571       -4.57054
H         -4.29441       -7.18754       -2.94030

--Link1--
%chk=JID_6595.chk
%mem=8GB
%nprocshared=4
# B3LYP/6-311++G(d,p) empiricaldispersion=gd3bj scf=xqc pop=npa geom=check

CID_58543801_JID_6595_Energie_neutraal

0 1

--Link1--
%chk=JID_6595.chk
%mem=8GB
%nprocshared=4
# B3LYP/6-311++G(d,p) empiricaldispersion=gd3bj scf=xqc pop=npa geom=check

CID_58543801_JID_6595_Energie_kation

1 2

--Link1--
%chk=JID_6595.chk
%mem=8GB
%nprocshared=4
# B3LYP/6-311++G(d,p) empiricaldispersion=gd3bj scf=xqc pop=npa geom=check

CID_58543801_JID_6595_Energie_anion

-1 2
