%chk=JID_977.chk
%mem=8GB
%nprocshared=4
# opt=(cartesian,calcfc,maxcycle=500) freq B3LYP/6-31G(d) empiricaldispersion=gd3bj scf=xqc

CID_88746807_JID_977_neutraal

0 1
6	-1.046697	 2.007553	 1.027704
6	-0.309688	 1.765095	 -0.282557
8	1.120820	 1.958867	 -0.156525
6	-3.654785	 -0.682495	 -0.608253
8	-2.263972	 -0.776636	 -0.852332
6	2.710362	 -0.835023	 -0.240400
7	1.679463	 -0.810204	 0.793143
6	0.571076	 -1.588016	 0.698320
8	-0.491177	 -1.361979	 1.271221
8	2.300266	 -0.258648	 -1.447786
1	-0.564583	 1.449910	 1.839975
1	-2.079369	 1.646311	 0.941465
1	-1.066695	 3.073204	 1.292923
1	-0.441246	 0.731120	 -0.594033
1	-0.710602	 2.397731	 -1.089710
1	1.308349	 2.904631	 -0.058495
1	-4.117114	 -0.267434	 -1.511321
1	-3.896659	 -0.016268	 0.237895
1	-4.115780	 -1.662388	 -0.410177
1	-1.833725	 -1.140459	 -0.054073
1	2.965374	 -1.877349	 -0.457120
1	3.594833	 -0.340757	 0.186099
1	1.521162	 0.097876	 1.226699
1	0.719679	 -2.475117	 0.055060
1	2.011036	 0.654898	 -1.242699

--Link1--
%chk=JID_977.chk
%mem=8GB
%nprocshared=4
# B3LYP/6-311++G(d,p) empiricaldispersion=gd3bj scf=xqc pop=npa geom=check

CID_88746807_JID_977_Energie_neutraal

0 1

--Link1--
%chk=JID_977.chk
%mem=8GB
%nprocshared=4
# B3LYP/6-311++G(d,p) empiricaldispersion=gd3bj scf=xqc pop=npa geom=check

CID_88746807_JID_977_Energie_kation

1 2

--Link1--
%chk=JID_977.chk
%mem=8GB
%nprocshared=4
# B3LYP/6-311++G(d,p) empiricaldispersion=gd3bj scf=xqc pop=npa geom=check

CID_88746807_JID_977_Energie_anion

-1 2
