%chk=JID_8254.chk
%mem=8GB
%nprocshared=4
# opt freq B3LYP/6-31G(d) empiricaldispersion=gd3bj scf=xqc

CID_114411397_JID_8254_neutraal

0 1
C          1.04583       -0.06606        0.05947
C          0.68651        1.09183        0.93924
C          0.06373        0.94659        2.12314
C         -0.31177        2.07611        3.04588
N         -0.19052        3.37639        2.36763
C          1.02796        3.52476        1.55137
C          1.05009        2.46732        0.43890
C         -0.39365        4.50830        3.18470
C          0.17100        4.64844        4.46160
C         -0.05918        5.82198        5.15192
C         -0.82231        6.86352        4.63192
C         -1.38549        6.75599        3.37546
C         -1.16228        5.57449        2.65709
C         -0.86704        8.00108        5.61560
C         -0.03223        7.41771        6.80218
O          0.18411        7.93217        7.88722
N          0.40221        6.15229        6.41688
O         -2.20027        8.34072        5.92957
H          0.56287        0.03546       -0.91768
H          0.73132       -1.02232        0.49036
H          2.12948       -0.10732       -0.09017
H         -0.19727       -0.04745        2.47718
H          0.33250        2.00041        3.92832
H         -1.35117        1.93685        3.36631
H          1.07379        4.51594        1.08159
H          1.92035        3.41905        2.18341
H          0.33924        2.74633       -0.34916
H          2.04941        2.45604       -0.01138
H          0.79647        3.87890        4.89505
H         -1.98062        7.55973        2.95329
H         -1.59620        5.46770        1.66405
H         -0.33865        8.87365        5.21808
H          0.95949        5.56255        7.01675
H         -2.66040        7.51240        6.14825

--Link1--
%chk=JID_8254.chk
%mem=8GB
%nprocshared=4
# B3LYP/6-311++G(d,p) empiricaldispersion=gd3bj scf=xqc pop=npa geom=check

CID_114411397_JID_8254_Energie_neutraal

0 1

--Link1--
%chk=JID_8254.chk
%mem=8GB
%nprocshared=4
# B3LYP/6-311++G(d,p) empiricaldispersion=gd3bj scf=xqc pop=npa geom=check

CID_114411397_JID_8254_Energie_kation

1 2

--Link1--
%chk=JID_8254.chk
%mem=8GB
%nprocshared=4
# B3LYP/6-311++G(d,p) empiricaldispersion=gd3bj scf=xqc pop=npa geom=check

CID_114411397_JID_8254_Energie_anion

-1 2
