%chk=JID_1376.chk
%mem=8GB
%nprocshared=4
# opt freq B3LYP/6-31G(d) empiricaldispersion=gd3bj scf=xqc

CID_140786738_JID_1376_neutraal

0 1
C          1.07978       -0.05411       -0.02661
O          0.72867        0.71907        0.84347
O          0.28074       -0.90145       -0.68425
O          2.34312       -0.24345       -0.42771
O         -2.12563       -0.13903       -0.20542
O         -2.00411        2.41065       -1.02797
O          1.98514        1.59547        3.07581
O          3.79374        1.27728        1.09012
O          0.48827        2.77134       -1.98442
O          1.98133       -1.91668       -2.60045
O          0.79536        0.50941       -3.43491
H         -0.64396       -0.66703       -0.38684
H          2.89438        0.37825        0.12579
H         -2.13708        0.81833       -0.47560
H         -3.03845       -0.22509        0.12260
H         -2.36809        3.22237       -1.42216
H         -1.04599        2.54568       -1.24899
H          1.46583        1.52192        3.89543
H          1.30157        1.38791        2.39638
H          3.28381        1.47673        1.91711
H          4.64553        1.69651        1.30989
H          1.41101        3.05254       -1.85817
H          0.62414        1.99709       -2.58849
H          1.23012       -2.04458       -1.98280
H          2.62829       -1.54934       -1.96258
H         -0.01513        0.03645       -3.69606
H          1.38734       -0.26118       -3.26827

--Link1--
%chk=JID_1376.chk
%mem=8GB
%nprocshared=4
# B3LYP/6-311++G(d,p) empiricaldispersion=gd3bj scf=xqc pop=npa geom=check

CID_140786738_JID_1376_Energie_neutraal

0 1

--Link1--
%chk=JID_1376.chk
%mem=8GB
%nprocshared=4
# B3LYP/6-311++G(d,p) empiricaldispersion=gd3bj scf=xqc pop=npa geom=check

CID_140786738_JID_1376_Energie_kation

1 2

--Link1--
%chk=JID_1376.chk
%mem=8GB
%nprocshared=4
# B3LYP/6-311++G(d,p) empiricaldispersion=gd3bj scf=xqc pop=npa geom=check

CID_140786738_JID_1376_Energie_anion

-1 2
