%chk=JID_8227.chk
%mem=8GB
%nprocshared=4
# opt freq B3LYP/6-31G(d) empiricaldispersion=gd3bj scf=xqc

CID_61434069_JID_8227_neutraal

0 1
C         -0.02900        0.88300        0.00000
C          0.29604        0.07006        1.21849
C          1.31189        0.21010        0.11784
N          1.65359       -0.96340       -0.72031
C          2.85322       -1.69716       -0.24930
C          2.99403       -3.15054       -0.62991
C          2.27120       -4.18634       -0.06568
S          2.67537       -5.71241       -0.72259
C          3.81922       -5.01461       -1.78221
C          3.89430       -3.64751       -1.63193
C          1.68001       -0.76289       -2.12715
C          1.18618       -1.76522       -2.97180
C          1.17266       -1.59619       -4.35871
C          1.64346       -0.41068       -4.93583
C          2.14239        0.59339       -4.09731
C          2.15492        0.41988       -2.70912
C          1.61657       -0.22782       -6.43029
N          2.62431       -1.05316       -7.08329
H         -0.06324        1.96088        0.09716
H         -0.74331        0.47533       -0.70609
H          0.47680        0.59570        2.14765
H         -0.20457       -0.88448        1.33214
H          2.16302        0.85814        0.31555
H          3.75883       -1.15229       -0.55265
H          2.85905       -1.66749        0.85027
H          1.51342       -4.11614        0.70310
H          4.37772       -5.63606       -2.46815
H          4.55274       -3.02406       -2.22503
H          0.79422       -2.68592       -2.54645
H          0.79052       -2.39556       -4.98992
H          2.51957        1.52320       -4.51564
H          2.54369        1.22027       -2.08709
H          0.62173       -0.48757       -6.80992
H          1.78548        0.82445       -6.68683
H          2.65800       -0.81803       -8.07254
H          3.53806       -0.82233       -6.69706

--Link1--
%chk=JID_8227.chk
%mem=8GB
%nprocshared=4
# B3LYP/6-311++G(d,p) empiricaldispersion=gd3bj scf=xqc pop=npa geom=check

CID_61434069_JID_8227_Energie_neutraal

0 1

--Link1--
%chk=JID_8227.chk
%mem=8GB
%nprocshared=4
# B3LYP/6-311++G(d,p) empiricaldispersion=gd3bj scf=xqc pop=npa geom=check

CID_61434069_JID_8227_Energie_kation

1 2

--Link1--
%chk=JID_8227.chk
%mem=8GB
%nprocshared=4
# B3LYP/6-311++G(d,p) empiricaldispersion=gd3bj scf=xqc pop=npa geom=check

CID_61434069_JID_8227_Energie_anion

-1 2
