%chk=JID_9837.chk
%mem=8GB
%nprocshared=4
# opt freq B3LYP/6-31G(d) empiricaldispersion=gd3bj scf=xqc

CID_112636484_JID_9837_neutraal

0 1
C          1.05977        0.00822        0.07975
C          1.94930        1.21059       -0.19766
O          2.59605        0.98852       -1.45091
C          3.60545        1.89377       -1.71959
N          3.70557        3.03048       -1.00454
C          4.73127        3.83040       -1.31410
N          5.63046        3.57164       -2.27361
C          5.46565        2.43654       -2.97757
C          4.45178        1.55077       -2.74182
N          4.95456        5.00774       -0.61948
C          3.80681        5.87175       -0.36081
C          4.09266        6.57391        0.97586
C          3.65501        6.90604       -1.50091
C          2.57617        7.99277       -1.27327
C          1.82198        8.03105       -2.61621
C          0.90959        6.79721       -2.69103
C          1.90806        5.64820       -2.88843
C          3.27070        6.36467       -2.90332
C          2.91166        7.66983       -3.62227
H          0.31802       -0.11363       -0.71655
H          0.53829        0.12171        1.03425
H          1.65327       -0.91165        0.10718
H          1.33627        2.11822       -0.24719
H          2.68417        1.29979        0.61206
H          6.20272        2.25981       -3.75345
H          4.33433        0.63603       -3.30586
H          5.72886        5.46112       -1.09239
H          2.88246        5.29970       -0.22454
H          4.98275        7.21003        0.90902
H          3.25210        7.19728        1.29482
H          4.27357        5.83766        1.76705
H          4.62046        7.42526       -1.60728
H          1.89906        7.77137       -0.44286
H          3.05806        8.95708       -1.07462
H          1.30049        8.97241       -2.79976
H          0.30234        6.66627       -1.78985
H          0.23388        6.86289       -3.55131
H          1.81530        4.88824       -2.11019
H          1.72306        5.15826       -3.85156
H          4.06321        5.79328       -3.39004
H          2.53012        7.51289       -4.63692
H          3.73407        8.39249       -3.64907

--Link1--
%chk=JID_9837.chk
%mem=8GB
%nprocshared=4
# B3LYP/6-311++G(d,p) empiricaldispersion=gd3bj scf=xqc pop=npa geom=check

CID_112636484_JID_9837_Energie_neutraal

0 1

--Link1--
%chk=JID_9837.chk
%mem=8GB
%nprocshared=4
# B3LYP/6-311++G(d,p) empiricaldispersion=gd3bj scf=xqc pop=npa geom=check

CID_112636484_JID_9837_Energie_kation

1 2

--Link1--
%chk=JID_9837.chk
%mem=8GB
%nprocshared=4
# B3LYP/6-311++G(d,p) empiricaldispersion=gd3bj scf=xqc pop=npa geom=check

CID_112636484_JID_9837_Energie_anion

-1 2
