%chk=JID_6715.chk
%mem=8GB
%nprocshared=4
# opt freq B3LYP/6-31G(d) empiricaldispersion=gd3bj scf=xqc

CID_44265322_JID_6715_neutraal

0 1
C          1.01270        0.05812       -0.08038
C          0.65174       -1.01717        0.92337
C          1.09154       -2.26496        0.66524
C          0.87050       -3.38384        1.54917
C          1.16347       -4.66935        1.26845
C          1.75119       -5.23887       -0.00384
C          3.09669       -5.90102        0.29011
C          0.78161       -6.24346       -0.62850
C          0.25717       -3.09945        2.89113
O          0.42172       -3.84674        3.85698
C         -0.66119       -1.86668        2.99225
C         -0.15525       -0.66652        2.15009
C          0.21346        0.63186        2.86901
C         -1.05706        0.56521        2.08182
C         -2.06875       -2.31031        2.57659
O         -0.74245       -1.50152        4.38256
H          1.47293        0.92514        0.39984
H          0.11985        0.38584       -0.62231
H          1.73139       -0.29577       -0.82851
H          1.66146       -2.44628       -0.24052
H          0.95036       -5.42079        2.03229
H          1.92597       -4.45588       -0.74738
H          2.99162       -6.73359        0.99469
H          3.54271       -6.29387       -0.63006
H          3.80112       -5.18048        0.72041
H         -0.17727       -5.76783       -0.86354
H          1.19055       -6.64520       -1.56215
H          0.58481       -7.08726        0.04223
H          1.01410        1.25825        2.49728
H          0.12219        0.69147        3.94913
H         -1.12837        1.14140        1.16779
H         -1.98243        0.57848        2.64965
H         -2.36276       -3.22181        3.11176
H         -2.81857       -1.55502        2.83584
H         -2.13635       -2.51127        1.50299
H         -0.55735       -2.32215        4.88347

--Link1--
%chk=JID_6715.chk
%mem=8GB
%nprocshared=4
# B3LYP/6-311++G(d,p) empiricaldispersion=gd3bj scf=xqc pop=npa geom=check

CID_44265322_JID_6715_Energie_neutraal

0 1

--Link1--
%chk=JID_6715.chk
%mem=8GB
%nprocshared=4
# B3LYP/6-311++G(d,p) empiricaldispersion=gd3bj scf=xqc pop=npa geom=check

CID_44265322_JID_6715_Energie_kation

1 2

--Link1--
%chk=JID_6715.chk
%mem=8GB
%nprocshared=4
# B3LYP/6-311++G(d,p) empiricaldispersion=gd3bj scf=xqc pop=npa geom=check

CID_44265322_JID_6715_Energie_anion

-1 2
