%chk=JID_4940.chk
%mem=8GB
%nprocshared=4
# opt freq B3LYP/6-31G(d) empiricaldispersion=gd3bj scf=xqc

CID_103838305_JID_4940_neutraal

0 1
C          1.01216       -0.07057       -0.06980
C          0.21601        0.86357        0.46834
C         -1.27539        0.84742        0.37374
S         -2.05980        0.77259        2.00859
C         -1.36312       -0.77070        2.71242
C         -2.09577       -2.05792        2.29970
N         -1.69025       -2.54496        0.97972
C         -2.28757       -3.83593        0.63247
C         -3.79710       -3.80231        0.29049
C         -4.15286       -2.86603       -0.87889
C         -3.64960       -3.38345       -2.22472
C         -4.15703       -4.79510       -2.50421
C         -3.83758       -5.75774       -1.36421
C         -4.31449       -5.22169       -0.01430
H          0.61202       -0.92898       -0.60126
H          2.09146       -0.00204        0.02676
H          0.66776        1.70248        0.99392
H         -1.59851        1.78310       -0.09590
H         -1.64806        0.04596       -0.26699
H         -0.28634       -0.84252        2.53271
H         -1.47669       -0.66345        3.79771
H         -1.84328       -2.82517        3.04227
H         -3.17884       -1.90101        2.35275
H         -1.93355       -1.85705        0.27458
H         -1.72222       -4.22071       -0.22284
H         -2.10736       -4.55165        1.44470
H         -4.33709       -3.44863        1.17783
H         -5.24592       -2.77201       -0.92932
H         -3.77632       -1.85264       -0.70668
H         -2.55382       -3.37203       -2.24660
H         -3.98577       -2.71166       -3.02292
H         -3.71745       -5.16780       -3.43629
H         -5.24316       -4.76419       -2.65601
H         -2.75792       -5.94376       -1.33302
H         -4.31378       -6.72533       -1.56050
H         -4.01671       -5.91368        0.78231
H         -5.41226       -5.20320       -0.01343

--Link1--
%chk=JID_4940.chk
%mem=8GB
%nprocshared=4
# B3LYP/6-311++G(d,p) empiricaldispersion=gd3bj scf=xqc pop=npa geom=check

CID_103838305_JID_4940_Energie_neutraal

0 1

--Link1--
%chk=JID_4940.chk
%mem=8GB
%nprocshared=4
# B3LYP/6-311++G(d,p) empiricaldispersion=gd3bj scf=xqc pop=npa geom=check

CID_103838305_JID_4940_Energie_kation

1 2

--Link1--
%chk=JID_4940.chk
%mem=8GB
%nprocshared=4
# B3LYP/6-311++G(d,p) empiricaldispersion=gd3bj scf=xqc pop=npa geom=check

CID_103838305_JID_4940_Energie_anion

-1 2
