%chk=JID_8673.chk
%mem=8GB
%nprocshared=4
# opt freq B3LYP/6-31G(d) empiricaldispersion=gd3bj scf=xqc

CID_106701439_JID_8673_neutraal

0 1
C          0.93666       -0.04700       -0.06147
C          0.31682        0.66590       -1.27264
C          0.72383       -0.07073       -2.56200
O          0.27773       -1.42305       -2.55859
C         -1.23253        0.81833       -1.14706
C         -1.62551        1.43808        0.20443
N         -1.71067        1.67259       -2.25068
C         -3.15278        1.57991       -2.51385
C         -3.69996        2.77533       -3.23256
C         -3.48472        4.12975       -3.01611
C         -4.20619        5.05236       -3.78049
C         -5.14528        4.61666       -4.72788
C         -5.37388        3.25371       -4.91930
C         -4.63961        2.36058       -4.16437
O         -4.78718        1.00151       -4.24561
C         -3.64212        0.46553       -3.50811
C         -2.60477        0.05211       -4.56393
C         -4.13798       -0.77886       -2.76634
H          0.42703       -0.99203        0.15344
H          0.88673        0.57953        0.83463
H          1.99629       -0.26344       -0.23641
H          0.76180        1.66997       -1.31833
H          0.31644        0.42235       -3.44909
H          1.81392       -0.07336       -2.67694
H          0.87758       -1.92835       -1.98464
H         -1.68203       -0.17719       -1.21825
H         -1.11332        2.39275        0.36851
H         -2.70149        1.61934        0.28138
H         -1.37296        0.76845        1.03271
H         -1.46827        2.63901       -2.04284
H         -3.72744        1.52123       -1.58168
H         -2.78461        4.47877       -2.26500
H         -4.04771        6.11807       -3.63270
H         -5.70342        5.34518       -5.31049
H         -6.10345        2.90161       -5.63980
H         -3.06575       -0.58641       -5.32685
H         -2.20217        0.92177       -5.09492
H         -1.77465       -0.50134       -4.12002
H         -4.92263       -0.51666       -2.04769
H         -4.59080       -1.49177       -3.46531
H         -3.33262       -1.28940       -2.23217

--Link1--
%chk=JID_8673.chk
%mem=8GB
%nprocshared=4
# B3LYP/6-311++G(d,p) empiricaldispersion=gd3bj scf=xqc pop=npa geom=check

CID_106701439_JID_8673_Energie_neutraal

0 1

--Link1--
%chk=JID_8673.chk
%mem=8GB
%nprocshared=4
# B3LYP/6-311++G(d,p) empiricaldispersion=gd3bj scf=xqc pop=npa geom=check

CID_106701439_JID_8673_Energie_kation

1 2

--Link1--
%chk=JID_8673.chk
%mem=8GB
%nprocshared=4
# B3LYP/6-311++G(d,p) empiricaldispersion=gd3bj scf=xqc pop=npa geom=check

CID_106701439_JID_8673_Energie_anion

-1 2
