%chk=JID_4222.chk
%mem=8GB
%nprocshared=4
# opt freq B3LYP/6-31G(d) empiricaldispersion=gd3bj scf=xqc

CID_53763053_JID_4222_neutraal

0 1
C          1.00534        0.08454        0.05315
C         -0.00380        0.14032        1.17449
C         -0.05783       -0.70899        2.48316
C         -1.46228       -0.20022        2.94871
C         -1.36153        1.32379        2.66161
C          0.01164        1.45300        1.93205
C          1.11886        1.30610        3.00277
C          0.88857       -0.11673        3.57576
C          2.31979       -0.62493        3.90740
C          2.91882        0.38325        4.88704
C          3.16938        1.50795        4.18603
C          2.66105        1.25779        2.75316
C          3.18090       -0.21114        2.72489
C          3.14961       -1.20164        1.58455
H          0.60850        0.63854       -0.80817
H          1.16749       -0.93774       -0.29734
H          1.94499        0.58348        0.28095
H         -0.95715        0.00360        0.63798
H         -0.02058       -1.79317        2.36782
H         -2.26218       -0.65062        2.34829
H         -1.68481       -0.41127        3.99955
H         -1.40711        1.91766        3.58013
H         -2.18491        1.63759        2.00997
H          0.09374        2.36096        1.33067
H          0.90015        2.07326        3.76212
H          0.35604       -0.06310        4.53632
H          2.40653       -1.66520        4.22408
H          3.08482        0.22131        5.94089
H          3.56112        2.43966        4.56465
H          3.07732        1.94433        2.01619
H          4.25705       -0.20190        2.98296
H          3.54199       -0.76968        0.66060
H          3.81230       -2.04290        1.82849
H          2.17828       -1.66524        1.42852

--Link1--
%chk=JID_4222.chk
%mem=8GB
%nprocshared=4
# B3LYP/6-311++G(d,p) empiricaldispersion=gd3bj scf=xqc pop=npa geom=check

CID_53763053_JID_4222_Energie_neutraal

0 1

--Link1--
%chk=JID_4222.chk
%mem=8GB
%nprocshared=4
# B3LYP/6-311++G(d,p) empiricaldispersion=gd3bj scf=xqc pop=npa geom=check

CID_53763053_JID_4222_Energie_kation

1 2

--Link1--
%chk=JID_4222.chk
%mem=8GB
%nprocshared=4
# B3LYP/6-311++G(d,p) empiricaldispersion=gd3bj scf=xqc pop=npa geom=check

CID_53763053_JID_4222_Energie_anion

-1 2
