%chk=JID_9642.chk
%mem=8GB
%nprocshared=4
# opt freq B3LYP/6-31G(d) empiricaldispersion=gd3bj scf=xqc

CID_114867858_JID_9642_neutraal

0 1
C          1.07882        0.05284        0.03155
C          0.13323        1.17135       -0.43248
C          0.31729        1.28413       -1.95566
C         -1.35249        0.87540       -0.07328
C         -2.24855        1.93250        0.74224
C         -1.93595        3.40101        0.26720
C         -2.23850        3.78192       -1.20355
C         -3.60372        4.46716       -1.35152
C         -1.16556        4.74869       -1.72402
C         -3.74238        1.55460        0.34514
N         -4.19305        0.20067        0.70096
N         -2.06256        1.85217        2.22636
C         -0.80952        1.37899        2.82119
C          0.29932        2.43358        2.97639
O         -0.04703        3.39770        3.97439
C          0.91799        4.43632        4.05623
C         -2.99135        2.38994        3.24491
C         -3.58268        3.78640        3.04479
C         -4.09615        1.39373        3.61910
H          0.75501       -0.92301       -0.34693
H          1.14568       -0.01156        1.11819
H          2.09744        0.23019       -0.33226
H          0.47488        2.10377        0.01621
H          0.07427        0.33895       -2.45462
H         -0.31380        2.05841       -2.39110
H          1.35496        1.53466       -2.20264
H         -1.86876        0.67399       -1.02273
H         -1.40545       -0.08742        0.45309
H         -2.47699        4.12058        0.88036
H         -0.88512        3.61663        0.48055
H         -2.23482        2.89324       -1.83945
H         -3.64613        5.39700       -0.77335
H         -3.79460        4.71878       -2.40061
H         -4.42391        3.82957       -1.01547
H         -0.16659        4.30659       -1.65619
H         -1.34625        5.00089       -2.77436
H         -1.15808        5.68048       -1.14771
H         -4.44895        2.26944        0.77206
H         -3.85915        1.63399       -0.74137
H         -5.10758        0.02864        0.29045
H         -3.55797       -0.49477        0.31855
H         -1.01633        0.96185        3.81711
H         -0.43422        0.51637        2.27808
H          1.21954        1.92814        3.29292
H          0.50354        2.93972        2.03123
H          1.89993        4.02854        4.31460
H          0.97357        4.98237        3.10943
H          0.60990        5.13193        4.84125
H         -2.42329        2.50318        4.17870
H         -4.24951        3.85204        2.18290
H         -4.17449        4.07330        3.92252
H         -2.79002        4.53557        2.94948
H         -3.70687        0.37288        3.69697
H         -4.51504        1.64997        4.59968
H         -4.92774        1.40597        2.91104

--Link1--
%chk=JID_9642.chk
%mem=8GB
%nprocshared=4
# B3LYP/6-311++G(d,p) empiricaldispersion=gd3bj scf=xqc pop=npa geom=check

CID_114867858_JID_9642_Energie_neutraal

0 1

--Link1--
%chk=JID_9642.chk
%mem=8GB
%nprocshared=4
# B3LYP/6-311++G(d,p) empiricaldispersion=gd3bj scf=xqc pop=npa geom=check

CID_114867858_JID_9642_Energie_kation

1 2

--Link1--
%chk=JID_9642.chk
%mem=8GB
%nprocshared=4
# B3LYP/6-311++G(d,p) empiricaldispersion=gd3bj scf=xqc pop=npa geom=check

CID_114867858_JID_9642_Energie_anion

-1 2
