%chk=JID_5348.chk
%mem=8GB
%nprocshared=4
# opt=(cartesian,calcfc) freq B3LYP/6-31G(d) empiricaldispersion=gd3bj scf=xqc

CID_131440758_JID_5348_neutraal

0 1
6	-3.941549	 -0.825301	 1.237231
6	-3.601158	 0.278041	 0.246121
8	-2.824854	 -0.209617	 -0.872047
6	-1.516947	 -0.527778	 -0.587345
6	-0.545334	 0.481953	 -0.504949
6	0.764461	 0.073881	 -0.233383
6	1.140445	 -1.280399	 -0.061204
6	0.140939	 -2.258576	 -0.177916
6	-1.169392	 -1.879654	 -0.437053
6	2.549982	 -1.442379	 0.190552
6	3.215230	 -0.262046	 0.219270
16	2.161534	 1.145465	 -0.046858
8	4.532546	 -0.100898	 0.495487
6	-0.894593	 1.940388	 -0.654424
8	-1.184209	 2.575941	 0.596567
1	-4.478200	 -1.641099	 0.741864
1	-4.576293	 -0.426692	 2.036906
1	-3.036233	 -1.235619	 1.695532
1	-4.506946	 0.684325	 -0.211642
1	-3.060735	 1.096403	 0.735053
1	0.394758	 -3.308293	 -0.061212
1	-1.956050	 -2.620561	 -0.531423
1	3.043276	 -2.396640	 0.328854
1	4.867063	 0.706431	 0.069907
1	-0.077227	 2.465725	 -1.171536
1	-1.798418	 2.046676	 -1.255629
1	-0.439904	 2.389711	 1.191594

--Link1--
%chk=JID_5348.chk
%mem=8GB
%nprocshared=4
# B3LYP/6-311++G(d,p) empiricaldispersion=gd3bj scf=xqc pop=npa geom=check

CID_131440758_JID_5348_Energie_neutraal

0 1

--Link1--
%chk=JID_5348.chk
%mem=8GB
%nprocshared=4
# B3LYP/6-311++G(d,p) empiricaldispersion=gd3bj scf=xqc pop=npa geom=check

CID_131440758_JID_5348_Energie_kation

1 2

--Link1--
%chk=JID_5348.chk
%mem=8GB
%nprocshared=4
# B3LYP/6-311++G(d,p) empiricaldispersion=gd3bj scf=xqc pop=npa geom=check

CID_131440758_JID_5348_Energie_anion

-1 2
