%chk=JID_33.chk
%mem=8GB
%nprocshared=4
# opt freq B3LYP/6-31G(d) empiricaldispersion=gd3bj scf=xqc

CID_19380340_JID_33_neutraal

0 1
C          0.90649        0.00069       -0.03544
C          1.23486        1.32368        0.63627
C          1.27474        2.44091       -0.35572
C          0.07225        3.31994       -0.59788
O          1.16493        3.74663        0.22938
C         -0.07095        4.10439       -1.86419
C         -0.80530        3.32622       -2.95763
C         -2.27734        3.01142       -2.66155
C         -3.16417        4.22954       -2.42363
O         -3.15746        5.09320       -3.55011
H         -0.07086        0.04407       -0.52753
H          0.88495       -0.80755        0.70190
H          1.65322       -0.24897       -0.79648
H          0.49497        1.52410        1.42020
H          2.21143        1.24779        1.12746
H          2.01117        2.30408       -1.13650
H         -0.86418        3.10460       -0.10223
H         -0.58128        5.04937       -1.65076
H          0.92164        4.37484       -2.24679
H         -0.74152        3.89393       -3.89381
H         -0.28188        2.37850       -3.13722
H         -2.67169        2.46093       -3.52520
H         -2.35061        2.33849       -1.80005
H         -4.19696        3.90292       -2.26511
H         -2.86126        4.79465       -1.53710
H         -2.30275        5.55572       -3.56656

--Link1--
%chk=JID_33.chk
%mem=8GB
%nprocshared=4
# B3LYP/6-311++G(d,p) empiricaldispersion=gd3bj scf=xqc pop=npa geom=check

CID_19380340_JID_33_Energie_neutraal

0 1

--Link1--
%chk=JID_33.chk
%mem=8GB
%nprocshared=4
# B3LYP/6-311++G(d,p) empiricaldispersion=gd3bj scf=xqc pop=npa geom=check

CID_19380340_JID_33_Energie_kation

1 2

--Link1--
%chk=JID_33.chk
%mem=8GB
%nprocshared=4
# B3LYP/6-311++G(d,p) empiricaldispersion=gd3bj scf=xqc pop=npa geom=check

CID_19380340_JID_33_Energie_anion

-1 2
