%chk=JID_2273.chk
%mem=8GB
%nprocshared=4
# opt freq B3LYP/6-31G(d) empiricaldispersion=gd3bj scf=xqc

CID_107908350_JID_2273_neutraal

0 1
C         -0.31100        1.37300        0.31600
C          0.96463        1.11600       -0.48950
C          1.26122       -0.34116       -0.69199
C          0.39215       -1.32095       -0.39671
C         -0.99137       -1.08190        0.14536
C         -1.41631        0.38760       -0.06547
N         -1.06542       -1.39218        1.57459
C         -1.09816       -2.81056        1.90970
C          0.25344       -3.44131        2.27011
C          1.05117       -2.73947        3.37665
C          0.30489       -2.55571        4.69295
O         -0.08481       -3.80956        5.23365
H         -0.65078        2.40096        0.14487
H         -0.09215        1.29205        1.38776
H          0.87416        1.58554       -1.47643
H          1.81083        1.59500        0.01592
H          2.23273       -0.59506       -1.10910
H          0.67753       -2.35170       -0.58701
H         -1.70902       -1.70118       -0.40702
H         -2.32701        0.61055        0.50469
H         -1.67475        0.53737       -1.12276
H         -0.32782       -0.89822        2.06962
H         -1.76659       -2.92050        2.77154
H         -1.56946       -3.39598        1.11051
H          0.07154       -4.48094        2.57119
H          0.88622       -3.50224        1.37845
H          1.94624       -3.34572        3.56607
H          1.40572       -1.76500        3.02275
H          0.96542       -2.07417        5.42115
H         -0.57952       -1.92076        4.58414
H         -0.85319       -4.12315        4.72811

--Link1--
%chk=JID_2273.chk
%mem=8GB
%nprocshared=4
# B3LYP/6-311++G(d,p) empiricaldispersion=gd3bj scf=xqc pop=npa geom=check

CID_107908350_JID_2273_Energie_neutraal

0 1

--Link1--
%chk=JID_2273.chk
%mem=8GB
%nprocshared=4
# B3LYP/6-311++G(d,p) empiricaldispersion=gd3bj scf=xqc pop=npa geom=check

CID_107908350_JID_2273_Energie_kation

1 2

--Link1--
%chk=JID_2273.chk
%mem=8GB
%nprocshared=4
# B3LYP/6-311++G(d,p) empiricaldispersion=gd3bj scf=xqc pop=npa geom=check

CID_107908350_JID_2273_Energie_anion

-1 2
