%chk=JID_8372.chk
%mem=8GB
%nprocshared=4
# opt freq B3LYP/6-31G(d) empiricaldispersion=gd3bj scf=xqc

CID_80868121_JID_8372_neutraal

0 1
C          0.94183       -0.04012       -0.07076
C          0.03186        0.45619        1.05944
C          0.09832        1.99577        1.16766
C         -0.78871        2.70825        0.18819
C         -1.76186        2.09542       -0.49746
C         -2.09190        0.63767       -0.33649
C         -1.44289       -0.00023        0.90938
C         -1.65616       -1.53055        0.90076
O         -1.29625       -2.11745        2.15952
C          0.00115       -2.58261        2.21981
N          0.53515       -3.19212        1.15299
C          1.83057       -3.51715        1.26621
N          2.59758       -3.27133        2.34064
C          2.00501       -2.68649        3.38448
C          0.67651       -2.34777        3.39102
N          2.80806       -2.42819        4.49462
S          2.65808       -4.21484       -0.14264
C          1.30731       -5.19927       -0.82692
H          0.75033        0.48956       -1.00983
H          0.82982       -1.10345       -0.27589
H          1.99179        0.13429        0.18994
H          0.43473        0.06703        1.99921
H         -0.20242        2.30170        2.17753
H          1.13280        2.33374        1.03286
H         -0.61152        3.77173        0.04135
H         -2.35553        2.66473       -1.20978
H         -1.78250        0.11054       -1.24692
H         -3.18112        0.53328       -0.26281
H         -1.97182        0.38285        1.79559
H         -2.73033       -1.72389        0.78714
H         -1.18575       -2.01496        0.03799
H          0.20170       -1.87122        4.23590
H          3.75701       -2.70670        4.25218
H          2.76872       -1.45305        4.77057
H          0.93714       -5.91174       -0.08475
H          0.48680       -4.56151       -1.16666
H          1.68039       -5.76152       -1.68760

--Link1--
%chk=JID_8372.chk
%mem=8GB
%nprocshared=4
# B3LYP/6-311++G(d,p) empiricaldispersion=gd3bj scf=xqc pop=npa geom=check

CID_80868121_JID_8372_Energie_neutraal

0 1

--Link1--
%chk=JID_8372.chk
%mem=8GB
%nprocshared=4
# B3LYP/6-311++G(d,p) empiricaldispersion=gd3bj scf=xqc pop=npa geom=check

CID_80868121_JID_8372_Energie_kation

1 2

--Link1--
%chk=JID_8372.chk
%mem=8GB
%nprocshared=4
# B3LYP/6-311++G(d,p) empiricaldispersion=gd3bj scf=xqc pop=npa geom=check

CID_80868121_JID_8372_Energie_anion

-1 2
