%chk=JID_5425.chk
%mem=8GB
%nprocshared=4
# opt freq B3LYP/6-31G(d) empiricaldispersion=gd3bj scf=xqc

CID_115009037_JID_5425_neutraal

0 1
C          1.05825        0.02712        0.07663
C          0.51084       -0.62759        1.34601
C          1.05735        0.06597        2.59595
C         -1.00109       -0.66053        1.35044
C         -1.68585       -1.87738        1.45034
C         -3.08987       -1.92387        1.47276
C         -3.74409       -0.69763        1.40360
N         -3.12602        0.50216        1.29935
C         -1.77587        0.49102        1.27681
C         -3.81279       -3.24903        1.61766
C         -3.42412       -4.25186        0.50972
C         -4.52323       -5.31575        0.50495
C         -5.75240       -4.65681        1.12779
C         -5.34369       -3.21358        1.41931
N         -3.49056       -3.82223        2.93568
H          0.78935        1.08708        0.01191
H          0.67147       -0.47095       -0.81950
H          2.15141       -0.03909        0.05064
H          0.88318       -1.66062        1.35898
H          0.77046        1.12255        2.63556
H          0.68289       -0.41559        3.50623
H          2.15144        0.01648        2.61683
H         -1.12390       -2.80598        1.53564
H         -4.82657       -0.61974        1.43910
H         -1.32214        1.47574        1.20342
H         -3.40599       -3.75188       -0.46858
H         -2.43514       -4.70213        0.65359
H         -4.22189       -6.18573        1.09957
H         -4.72455       -5.66933       -0.51146
H         -6.02866       -5.17467        2.05351
H         -6.61940       -4.69908        0.46085
H         -5.88298       -2.80429        2.28111
H         -5.61056       -2.60116        0.54767
H         -3.79632       -3.17547        3.66217
H         -4.00316       -4.68708        3.08988

--Link1--
%chk=JID_5425.chk
%mem=8GB
%nprocshared=4
# B3LYP/6-311++G(d,p) empiricaldispersion=gd3bj scf=xqc pop=npa geom=check

CID_115009037_JID_5425_Energie_neutraal

0 1

--Link1--
%chk=JID_5425.chk
%mem=8GB
%nprocshared=4
# B3LYP/6-311++G(d,p) empiricaldispersion=gd3bj scf=xqc pop=npa geom=check

CID_115009037_JID_5425_Energie_kation

1 2

--Link1--
%chk=JID_5425.chk
%mem=8GB
%nprocshared=4
# B3LYP/6-311++G(d,p) empiricaldispersion=gd3bj scf=xqc pop=npa geom=check

CID_115009037_JID_5425_Energie_anion

-1 2
