%chk=JID_4315.chk
%mem=8GB
%nprocshared=4
# opt freq B3LYP/6-31G(d) empiricaldispersion=gd3bj scf=xqc

CID_116227886_JID_4315_neutraal

0 1
C          0.96850       -0.09488       -0.00255
C          0.37845       -0.42192       -1.37691
C          0.90715       -1.76142       -1.89230
C         -1.12700       -0.37083       -1.41317
C         -1.91593        0.28760       -2.35252
N         -3.20857        0.06045       -1.96728
N         -3.32670       -0.71183       -0.88444
C         -2.07362       -0.98144       -0.54427
N         -1.78146       -1.77059        0.49659
C         -1.57401        1.08983       -3.57933
C         -2.35597        0.58061       -4.79983
C         -1.69376        2.59778       -3.48989
C         -2.82870        3.31279       -2.79539
C         -1.44388        3.35160       -2.20612
H          0.77284       -0.88026        0.73320
H          0.55811        0.84308        0.38759
H          2.05596        0.01974       -0.07263
H          0.75780        0.35345       -2.05490
H          0.59799       -2.59384       -1.25147
H          0.53524       -1.96517       -2.90282
H          2.00163       -1.75667       -1.93318
H         -4.05792        0.39411       -2.40873
H         -2.56930       -2.27970        0.88168
H         -0.92232       -2.30199        0.50450
H         -0.51759        0.89342       -3.80517
H         -3.42665        0.79759       -4.71303
H         -2.00057        1.06392       -5.71688
H         -2.23773       -0.50181       -4.92312
H         -1.30899        3.06250       -4.39514
H         -3.20784        4.22117       -3.25209
H         -3.58198        2.75917       -2.25127
H         -1.26908        2.80083       -1.28878
H         -0.89435        4.28472       -2.26492

--Link1--
%chk=JID_4315.chk
%mem=8GB
%nprocshared=4
# B3LYP/6-311++G(d,p) empiricaldispersion=gd3bj scf=xqc pop=npa geom=check

CID_116227886_JID_4315_Energie_neutraal

0 1

--Link1--
%chk=JID_4315.chk
%mem=8GB
%nprocshared=4
# B3LYP/6-311++G(d,p) empiricaldispersion=gd3bj scf=xqc pop=npa geom=check

CID_116227886_JID_4315_Energie_kation

1 2

--Link1--
%chk=JID_4315.chk
%mem=8GB
%nprocshared=4
# B3LYP/6-311++G(d,p) empiricaldispersion=gd3bj scf=xqc pop=npa geom=check

CID_116227886_JID_4315_Energie_anion

-1 2
