%chk=JID_7217.chk
%mem=8GB
%nprocshared=4
# opt freq B3LYP/6-31G(d) empiricaldispersion=gd3bj scf=xqc

CID_145808329_JID_7217_neutraal

0 1
C          0.90502        0.01634        0.02668
C          0.38481        0.44612        1.38933
C          0.95320        1.78523        1.86401
C          0.64586        2.98859        0.96722
C         -0.84137        3.26589        0.71483
C         -1.70246        3.47949        1.96471
C         -1.24228        4.63390        2.80707
C         -1.91800        5.78719        2.94128
C         -1.49061        6.90266        3.77412
C         -2.41821        7.61591        4.36487
O         -3.24108        8.26728        4.89832
N         -0.12453        7.17079        3.98287
C          0.79961        7.26274        2.82051
C          2.24522        7.00517        3.26621
O          2.64708        7.92531        4.29198
C          1.79081        7.79105        5.43617
C          0.32226        8.07040        5.08105
H          0.56199        0.68944       -0.76445
H          0.54282       -0.98846       -0.21354
H          1.99926       -0.00613        0.01274
H         -0.70980        0.47971        1.36936
H          0.65692       -0.32225        2.12317
H          0.58570        1.98169        2.87799
H          2.04325        1.69419        1.95312
H          1.11105        3.87747        1.41082
H          1.14143        2.85441       -0.00191
H         -0.91765        4.15495        0.07505
H         -1.27045        2.44146        0.13294
H         -2.74029        3.63622        1.64458
H         -1.71198        2.57419        2.58187
H         -0.31057        4.49396        3.35219
H         -2.87685        5.90695        2.43791
H          0.71888        8.27158        2.39665
H          0.54271        6.55153        2.03001
H          2.36741        5.97998        3.63592
H          2.92440        7.13835        2.41832
H          2.13217        8.50593        6.19142
H          1.90897        6.78327        5.85228
H          0.20913        9.11145        4.75465
H         -0.28463        7.91809        5.98090

--Link1--
%chk=JID_7217.chk
%mem=8GB
%nprocshared=4
# B3LYP/6-311++G(d,p) empiricaldispersion=gd3bj scf=xqc pop=npa geom=check

CID_145808329_JID_7217_Energie_neutraal

0 1

--Link1--
%chk=JID_7217.chk
%mem=8GB
%nprocshared=4
# B3LYP/6-311++G(d,p) empiricaldispersion=gd3bj scf=xqc pop=npa geom=check

CID_145808329_JID_7217_Energie_kation

1 2

--Link1--
%chk=JID_7217.chk
%mem=8GB
%nprocshared=4
# B3LYP/6-311++G(d,p) empiricaldispersion=gd3bj scf=xqc pop=npa geom=check

CID_145808329_JID_7217_Energie_anion

-1 2
