%chk=JID_3565.chk
%mem=8GB
%nprocshared=4
# opt freq B3LYP/6-31G(d) empiricaldispersion=gd3bj scf=xqc

CID_10631100_JID_3565_neutraal

0 1
C          0.96121        0.06649       -0.06383
C          0.55596       -1.37618       -0.11674
C          1.44538       -2.37070       -0.00168
C          0.95917       -3.73994       -0.06774
C         -0.40266       -3.98860       -0.23268
C         -0.87250       -5.30252       -0.29273
C          0.00850       -6.38172       -0.19054
C          1.37131       -6.13447       -0.02630
C          1.84433       -4.81816        0.03513
O         -0.58222       -7.61303       -0.26520
C          0.27227       -8.74471       -0.16293
O         -1.34699       -3.00877       -0.33998
C         -0.91545       -1.64190       -0.31007
H          0.46333        0.57076        0.77064
H          0.68309        0.57382       -0.99324
H          2.04150        0.18553        0.07079
H          2.50543       -2.19100        0.13654
H         -1.93612       -5.48585       -0.42033
H          2.09329       -6.93964        0.05775
H          2.91006       -4.64587        0.16430
H          0.99464       -8.76960       -0.98551
H          0.77710       -8.77181        0.80840
H         -0.35003       -9.64155       -0.23949
H         -1.24130       -1.18827       -1.25324
H         -1.47651       -1.15522        0.49604

--Link1--
%chk=JID_3565.chk
%mem=8GB
%nprocshared=4
# B3LYP/6-311++G(d,p) empiricaldispersion=gd3bj scf=xqc pop=npa geom=check

CID_10631100_JID_3565_Energie_neutraal

0 1

--Link1--
%chk=JID_3565.chk
%mem=8GB
%nprocshared=4
# B3LYP/6-311++G(d,p) empiricaldispersion=gd3bj scf=xqc pop=npa geom=check

CID_10631100_JID_3565_Energie_kation

1 2

--Link1--
%chk=JID_3565.chk
%mem=8GB
%nprocshared=4
# B3LYP/6-311++G(d,p) empiricaldispersion=gd3bj scf=xqc pop=npa geom=check

CID_10631100_JID_3565_Energie_anion

-1 2
