%chk=JID_7259.chk
%mem=8GB
%nprocshared=4
# opt freq B3LYP/6-31G(d) empiricaldispersion=gd3bj scf=xqc

CID_106550191_JID_7259_neutraal

0 1
C          1.02217       -0.06733        0.07054
C          0.79989       -1.17436       -0.94929
C          0.85591       -2.60057       -0.35035
C          2.25814       -2.86431        0.28640
N          2.46805       -4.24315        0.77669
C          2.16765       -5.22304       -0.29400
C          0.75436       -5.00396       -0.89914
N          0.60037       -3.62062       -1.41578
C         -0.72470       -3.50955       -1.92143
N         -1.80675       -3.59739       -1.11470
N         -3.06822       -3.47841       -1.62904
C         -3.22505       -3.25537       -2.94887
C         -2.15677       -3.13569       -3.82052
C         -0.87902       -3.28908       -3.28599
C         -2.36635       -2.90657       -5.28187
C          3.24947       -5.26562       -1.39390
C          4.63897       -5.58197       -0.85535
H          0.34196       -0.17365        0.92131
H          0.83760        0.90861       -0.39037
H          2.05042       -0.06228        0.44317
H         -0.18011       -0.99756       -1.40748
H          1.53785       -1.07766       -1.75556
H          0.10431       -2.69150        0.44708
H          2.40160       -2.19842        1.14430
H          3.05031       -2.61343       -0.42925
H          1.80285       -4.40138        1.53507
H          2.16187       -6.21244        0.18217
H          0.01121       -5.21318       -0.11605
H          0.59377       -5.72818       -1.70882
H         -4.25411       -3.17310       -3.28016
H          0.00257       -3.22069       -3.91554
H         -2.46917       -3.86329       -5.80265
H         -3.26699       -2.30880       -5.45775
H         -1.52400       -2.35709       -5.71556
H          2.98146       -6.04155       -2.12211
H          3.28784       -4.32253       -1.95082
H          4.63890       -6.52433       -0.29841
H          5.34895       -5.67883       -1.68302
H          5.00352       -4.78912       -0.19519

--Link1--
%chk=JID_7259.chk
%mem=8GB
%nprocshared=4
# B3LYP/6-311++G(d,p) empiricaldispersion=gd3bj scf=xqc pop=npa geom=check

CID_106550191_JID_7259_Energie_neutraal

0 1

--Link1--
%chk=JID_7259.chk
%mem=8GB
%nprocshared=4
# B3LYP/6-311++G(d,p) empiricaldispersion=gd3bj scf=xqc pop=npa geom=check

CID_106550191_JID_7259_Energie_kation

1 2

--Link1--
%chk=JID_7259.chk
%mem=8GB
%nprocshared=4
# B3LYP/6-311++G(d,p) empiricaldispersion=gd3bj scf=xqc pop=npa geom=check

CID_106550191_JID_7259_Energie_anion

-1 2
