%chk=JID_7031.chk
%mem=8GB
%nprocshared=4
# opt freq B3LYP/6-31G(d) empiricaldispersion=gd3bj scf=xqc

CID_123718231_JID_7031_neutraal

0 1
C          0.94774       -0.00871       -0.08481
C          0.47804        1.40666        0.21316
C          0.52579        2.28021       -1.01012
C         -0.44303        2.82709       -1.78298
C          0.06877        3.73099       -2.78167
C          0.41952        5.06376       -2.65955
C          0.90306        5.64626       -3.87928
C          1.33406        6.96489       -4.15921
C          1.77193        7.30736       -5.44182
C          1.79149        6.35698       -6.45267
C          1.37560        5.04734       -6.20439
C          0.93351        4.70752       -4.91152
S          0.38640        3.16787       -4.37643
N         -1.86649        2.57243       -1.80040
C         -2.35397        1.51496       -1.25239
C         -2.78338        3.53624       -2.49828
C         -3.14032        4.67669       -1.56055
H          0.31293       -0.49444       -0.83275
H          0.92190       -0.61447        0.82664
H          1.97641       -0.01204       -0.46137
H         -0.50815        1.40042        0.68435
H          1.14733        1.84589        0.96400
H          1.56064        2.57227       -1.22589
H          0.33623        5.62269       -1.73348
H          1.33035        7.72252       -3.37855
H          2.10276        8.32361       -5.64710
H          2.13814        6.63233       -7.44706
H          1.39993        4.30686       -6.99972
H         -3.44597        1.36851       -1.24348
H         -1.73025        0.71305       -0.84725
H         -2.34248        3.89224       -3.43155
H         -3.69406        2.99220       -2.77751
H         -2.25843        5.24574       -1.25072
H         -3.82823        5.36844       -2.05723
H         -3.63275        4.30734       -0.65410

--Link1--
%chk=JID_7031.chk
%mem=8GB
%nprocshared=4
# B3LYP/6-311++G(d,p) empiricaldispersion=gd3bj scf=xqc pop=npa geom=check

CID_123718231_JID_7031_Energie_neutraal

0 1

--Link1--
%chk=JID_7031.chk
%mem=8GB
%nprocshared=4
# B3LYP/6-311++G(d,p) empiricaldispersion=gd3bj scf=xqc pop=npa geom=check

CID_123718231_JID_7031_Energie_kation

1 2

--Link1--
%chk=JID_7031.chk
%mem=8GB
%nprocshared=4
# B3LYP/6-311++G(d,p) empiricaldispersion=gd3bj scf=xqc pop=npa geom=check

CID_123718231_JID_7031_Energie_anion

-1 2
