%chk=JID_9946.chk
%mem=8GB
%nprocshared=4
# opt freq B3LYP/6-31G(d) empiricaldispersion=gd3bj scf=xqc

CID_97381909_JID_9946_neutraal

0 1
C          0.95509       -0.08491        0.02780
O          1.04025       -1.17147       -0.88663
C          1.97998       -0.93861       -1.93607
C          1.42732       -0.01022       -2.98393
C          1.91298        1.28908       -3.22037
C          3.04862        1.88342       -2.41757
C          3.58800        3.20580       -2.98641
N          2.48228        4.08679       -3.36845
C          1.73701        3.49383       -4.48990
C          1.27199        2.08983       -4.18404
C          0.21861        1.53619       -4.90503
N         -0.25685        0.28877       -4.71455
C          0.34694       -0.44374       -3.75320
C          2.90739        5.47208       -3.64761
C          3.93001        5.65817       -4.74443
N          3.67394        5.55858       -6.03474
C          4.82573        5.78841       -6.76021
C          5.95033        6.07301       -6.01769
S          5.56183        6.05522       -4.35033
H          0.27989       -0.37463        0.83769
H          0.54314        0.80421       -0.45760
H          1.93633        0.13661        0.45850
H          2.93364       -0.60565       -1.51587
H          2.18512       -1.90721       -2.40793
H          3.88435        1.17644       -2.37135
H          2.68806        2.05633       -1.39604
H          4.23964        2.99404       -3.84466
H          4.21024        3.67512       -2.21455
H          0.85604        4.11476       -4.69476
H          2.34175        3.44474       -5.40291
H         -0.29312        2.10209       -5.67915
H         -0.08235       -1.43206       -3.60218
H          2.02240        6.06927       -3.90446
H          3.27677        5.91096       -2.71156
H          4.78955        5.73739       -7.84147
H          6.95035        6.28678       -6.36549

--Link1--
%chk=JID_9946.chk
%mem=8GB
%nprocshared=4
# B3LYP/6-311++G(d,p) empiricaldispersion=gd3bj scf=xqc pop=npa geom=check

CID_97381909_JID_9946_Energie_neutraal

0 1

--Link1--
%chk=JID_9946.chk
%mem=8GB
%nprocshared=4
# B3LYP/6-311++G(d,p) empiricaldispersion=gd3bj scf=xqc pop=npa geom=check

CID_97381909_JID_9946_Energie_kation

1 2

--Link1--
%chk=JID_9946.chk
%mem=8GB
%nprocshared=4
# B3LYP/6-311++G(d,p) empiricaldispersion=gd3bj scf=xqc pop=npa geom=check

CID_97381909_JID_9946_Energie_anion

-1 2
