%chk=JID_8613.chk
%mem=8GB
%nprocshared=4
# opt freq B3LYP/6-31G(d) empiricaldispersion=gd3bj scf=xqc

CID_43528986_JID_8613_neutraal

0 1
C          2.49200       -0.00900       -0.33800
C          1.67999       -1.29979       -0.52197
C          0.28896       -0.75504       -0.61215
C          0.22751        0.53891       -0.08904
C          1.57369        0.98463        0.38988
C         -0.97291        1.23032       -0.03093
C         -2.13517        0.61871       -0.52502
C         -2.05658       -0.67970       -1.06685
C         -0.84510       -1.38025       -1.09697
S         -3.65075        1.56812       -0.48542
C         -4.91555        0.32571       -0.35271
N         -5.64411        0.08905       -1.46760
C         -6.62041       -0.83777       -1.38292
C         -6.91471       -1.54593       -0.22979
C         -6.16677       -1.28873        0.92020
C         -5.14360       -0.33460        0.84949
C         -6.43210       -2.03229        2.20002
N         -5.39705       -3.02408        2.45072
H          2.75014        0.39716       -1.32609
H          3.43185       -0.17843        0.19654
H          1.98096       -1.83536       -1.42652
H          1.77252       -1.95374        0.35129
H          1.64537        0.86870        1.47610
H          1.79901        2.01636        0.10581
H         -1.00277        2.23427        0.38259
H         -2.93966       -1.16030       -1.48163
H         -0.80175       -2.38534       -1.50402
H         -7.18042       -1.00167       -2.29905
H         -7.71351       -2.28004       -0.23510
H         -4.53226       -0.12280        1.72147
H         -6.47406       -1.32095        3.03268
H         -7.41043       -2.52522        2.15878
H         -5.64262       -3.56457        3.27778
H         -5.36781       -3.68303        1.67428

--Link1--
%chk=JID_8613.chk
%mem=8GB
%nprocshared=4
# B3LYP/6-311++G(d,p) empiricaldispersion=gd3bj scf=xqc pop=npa geom=check

CID_43528986_JID_8613_Energie_neutraal

0 1

--Link1--
%chk=JID_8613.chk
%mem=8GB
%nprocshared=4
# B3LYP/6-311++G(d,p) empiricaldispersion=gd3bj scf=xqc pop=npa geom=check

CID_43528986_JID_8613_Energie_kation

1 2

--Link1--
%chk=JID_8613.chk
%mem=8GB
%nprocshared=4
# B3LYP/6-311++G(d,p) empiricaldispersion=gd3bj scf=xqc pop=npa geom=check

CID_43528986_JID_8613_Energie_anion

-1 2
