%chk=JID_7518.chk
%mem=8GB
%nprocshared=4
# opt freq B3LYP/6-31G(d) empiricaldispersion=gd3bj scf=xqc

CID_615030_JID_7518_neutraal

0 1
C          2.78300        0.55800       -0.39200
C          1.71371        1.26788        0.43024
C          0.93347        0.13313        1.09675
C         -0.51168        0.03445        0.69237
C         -1.74736        0.62124        0.84064
C         -2.81453        0.04947        0.14531
C         -2.61457       -1.07809       -0.67265
C         -1.34544       -1.64996       -0.80086
C         -0.31129       -1.07590       -0.09378
C          1.17760       -1.15030        0.19267
C          2.08697       -0.68552       -0.94095
N          1.57179       -2.28459        1.04990
C          2.86996       -2.17534        1.73316
C          4.07312       -2.75459        0.97157
O          3.82518       -4.09211        0.52957
C          2.66366       -4.13861       -0.30425
C          1.42185       -3.61008        0.42834
H          3.61963        0.27167        0.25420
H          3.18152        1.19397       -1.18797
H          2.16249        1.93857        1.16972
H          1.07741        1.87207       -0.22785
H          1.13323        0.03408        2.16988
H         -1.88616        1.49326        1.46882
H         -3.80912        0.47979        0.23314
H         -3.45679       -1.50663       -1.21042
H         -1.18521       -2.51256       -1.43627
H          1.50132       -0.40172       -1.82536
H          2.80889       -1.42829       -1.27842
H          2.77018       -2.75068        2.66341
H          3.09089       -1.15212        2.05183
H          4.35556       -2.13836        0.11332
H          4.94102       -2.78896        1.63858
H          2.50381       -5.18658       -0.57903
H          2.85788       -3.59138       -1.23147
H          1.20431       -4.30812        1.24778
H          0.55687       -3.66548       -0.23795

--Link1--
%chk=JID_7518.chk
%mem=8GB
%nprocshared=4
# B3LYP/6-311++G(d,p) empiricaldispersion=gd3bj scf=xqc pop=npa geom=check

CID_615030_JID_7518_Energie_neutraal

0 1

--Link1--
%chk=JID_7518.chk
%mem=8GB
%nprocshared=4
# B3LYP/6-311++G(d,p) empiricaldispersion=gd3bj scf=xqc pop=npa geom=check

CID_615030_JID_7518_Energie_kation

1 2

--Link1--
%chk=JID_7518.chk
%mem=8GB
%nprocshared=4
# B3LYP/6-311++G(d,p) empiricaldispersion=gd3bj scf=xqc pop=npa geom=check

CID_615030_JID_7518_Energie_anion

-1 2
