%chk=JID_4845.chk
%mem=8GB
%nprocshared=4
# opt freq B3LYP/6-31G(d) empiricaldispersion=gd3bj scf=xqc

CID_103339437_JID_4845_neutraal

0 1
C          0.95119        0.04671       -0.07373
C          0.11923       -1.22186       -0.19954
C          0.65668       -2.41478        0.62329
C          0.81209       -2.07688        2.12605
N         -0.44395       -1.70925        2.77521
C         -0.23173       -3.68106        0.45129
N          0.22767       -4.64089       -0.56517
C         -0.26210       -6.01380       -0.34138
C         -1.73148       -6.19556        0.09505
O         -2.12591       -7.56997        0.01896
C         -2.61843       -7.92660       -1.26621
C          0.17167       -4.21637       -1.96176
C         -1.19849       -4.04818       -2.55568
C         -1.65815       -2.92889       -3.13041
H          0.87718        0.48202        0.92683
H          0.59406        0.79978       -0.78395
H          2.00522       -0.15075       -0.29257
H         -0.91735       -0.99860        0.07915
H          0.09922       -1.48392       -1.25774
H          1.66724       -2.64870        0.26003
H          1.23070       -2.94548        2.64855
H          1.53761       -1.26761        2.26202
H         -0.26884       -1.53193        3.76426
H         -0.78446       -0.82834        2.39173
H         -0.21813       -4.21292        1.41155
H         -1.27675       -3.39522        0.27827
H         -0.04520       -6.63997       -1.21567
H          0.36171       -6.45826        0.44654
H         -1.83677       -5.90089        1.14481
H         -2.42579       -5.57533       -0.47986
H         -3.52379       -7.35679       -1.49729
H         -1.86351       -7.75955       -2.03931
H         -2.87321       -8.98967       -1.25295
H          0.77154       -3.31101       -2.09849
H          0.69831       -4.96373       -2.57101
H         -1.83998       -4.92407       -2.56422
H         -2.65462       -2.89488       -3.56025
H         -1.05758       -2.02757       -3.19431

--Link1--
%chk=JID_4845.chk
%mem=8GB
%nprocshared=4
# B3LYP/6-311++G(d,p) empiricaldispersion=gd3bj scf=xqc pop=npa geom=check

CID_103339437_JID_4845_Energie_neutraal

0 1

--Link1--
%chk=JID_4845.chk
%mem=8GB
%nprocshared=4
# B3LYP/6-311++G(d,p) empiricaldispersion=gd3bj scf=xqc pop=npa geom=check

CID_103339437_JID_4845_Energie_kation

1 2

--Link1--
%chk=JID_4845.chk
%mem=8GB
%nprocshared=4
# B3LYP/6-311++G(d,p) empiricaldispersion=gd3bj scf=xqc pop=npa geom=check

CID_103339437_JID_4845_Energie_anion

-1 2
