%chk=JID_10990.chk
%mem=8GB
%nprocshared=4
# opt freq B3LYP/6-31G(d) empiricaldispersion=gd3bj scf=xqc

CID_128405653_JID_10990_neutraal

0 1
C          0.99316       -0.05504       -0.08321
C          0.62356       -1.08637       -1.14856
C          1.52751       -1.02601       -2.38672
C          2.84000       -1.81674       -2.31074
C          2.62455       -3.23453       -1.76418
C          1.77663       -3.32994       -0.48839
C          0.48328       -2.51202       -0.59509
N          2.53307       -2.99429        0.71012
C          3.35953       -3.83414        1.42520
O          4.07519       -3.41120        2.32578
C          3.32117       -5.33996        1.11219
O          3.67217       -5.75077        0.01431
N          2.83820       -6.11752        2.12954
C          2.62897       -5.83664        3.53921
C          2.32551       -7.33711        3.70975
C          2.81652       -7.53795        2.29248
C          4.04747       -8.39674        2.09300
C          3.33578       -8.99949        0.85722
C          1.99702       -8.43961        1.39585
C          3.96297       -1.06663       -1.59509
H          0.27701       -0.08607        0.74516
H          0.96087        0.95578       -0.50466
H          1.98726       -0.20043        0.33561
H         -0.38039       -0.78776       -1.48445
H          0.95076       -1.44624       -3.22330
H          1.72607        0.01655       -2.66454
H          3.19237       -1.93109       -3.34615
H          3.59455       -3.72606       -1.62665
H          2.10428       -3.80796       -2.54417
H          1.47282       -4.37732       -0.37452
H         -0.03584       -2.49369        0.37151
H         -0.18229       -3.05495       -1.28139
H          2.66662       -2.02387        0.95539
H          3.53212       -5.49015        4.04918
H          1.78957       -5.16586        3.73642
H          2.90081       -7.82946        4.49993
H          1.26219       -7.55207        3.86713
H          4.98190       -7.87117        1.87748
H          4.22928       -9.13024        2.88657
H          3.38820      -10.08800        0.76921
H          3.64860       -8.55188       -0.09263
H          1.39645       -9.18806        1.92508
H          1.36923       -7.94488        0.64945
H          4.90830       -1.61099       -1.69835
H          4.10668       -0.07489       -2.03717
H          3.78336       -0.93287       -0.52942

--Link1--
%chk=JID_10990.chk
%mem=8GB
%nprocshared=4
# B3LYP/6-311++G(d,p) empiricaldispersion=gd3bj scf=xqc pop=npa geom=check

CID_128405653_JID_10990_Energie_neutraal

0 1

--Link1--
%chk=JID_10990.chk
%mem=8GB
%nprocshared=4
# B3LYP/6-311++G(d,p) empiricaldispersion=gd3bj scf=xqc pop=npa geom=check

CID_128405653_JID_10990_Energie_kation

1 2

--Link1--
%chk=JID_10990.chk
%mem=8GB
%nprocshared=4
# B3LYP/6-311++G(d,p) empiricaldispersion=gd3bj scf=xqc pop=npa geom=check

CID_128405653_JID_10990_Energie_anion

-1 2
