%chk=JID_9459.chk
%mem=8GB
%nprocshared=4
# opt freq B3LYP/6-31G(d) empiricaldispersion=gd3bj scf=xqc

CID_112299113_JID_9459_neutraal

0 1
C          0.91145        0.03986        0.02388
C          0.48488        1.22878        0.90155
C          1.06621        2.51261        0.26443
C         -1.05088        1.34174        0.87387
C          1.00961        1.11650        2.36832
C          0.49321       -0.07184        3.21704
N          1.22417       -1.31319        2.97058
C          2.00538       -2.03550        3.82894
O          2.53157       -3.06522        3.40072
C          2.21003       -1.57684        5.25954
C          3.09819       -0.38741        5.34296
C          4.40280       -0.23482        4.88408
N          4.71316        1.06054        5.16510
C          5.78629        1.90044        4.98157
C          5.53967        3.12715        5.47403
S          3.92653        3.26935        6.20047
C          3.63499        1.60815        5.78997
N          2.63634        0.78223        5.93513
O          2.44404        1.11661        2.36540
H          0.65344        0.21691       -1.02713
H          0.40169       -0.88192        0.31844
H          1.99167       -0.13269        0.06987
H          0.67884        2.66300       -0.74999
H          0.80183        3.39872        0.85254
H          2.15851        2.46969        0.19284
H         -1.53525        0.41547        1.19813
H         -1.39923        2.15201        1.52383
H         -1.41239        1.55175       -0.13962
H          0.70582        2.03247        2.89183
H          0.58577        0.19227        4.27212
H         -0.56613       -0.27264        3.04073
H          1.10857       -1.77178        2.07494
H          1.23505       -1.38297        5.71896
H          2.65750       -2.40427        5.82303
H          5.08285       -0.90751        4.38111
H          6.68282        1.55685        4.49073
H          6.22199        3.96624        5.44841
H          2.71955        0.18181        2.35649

--Link1--
%chk=JID_9459.chk
%mem=8GB
%nprocshared=4
# B3LYP/6-311++G(d,p) empiricaldispersion=gd3bj scf=xqc pop=npa geom=check

CID_112299113_JID_9459_Energie_neutraal

0 1

--Link1--
%chk=JID_9459.chk
%mem=8GB
%nprocshared=4
# B3LYP/6-311++G(d,p) empiricaldispersion=gd3bj scf=xqc pop=npa geom=check

CID_112299113_JID_9459_Energie_kation

1 2

--Link1--
%chk=JID_9459.chk
%mem=8GB
%nprocshared=4
# B3LYP/6-311++G(d,p) empiricaldispersion=gd3bj scf=xqc pop=npa geom=check

CID_112299113_JID_9459_Energie_anion

-1 2
