%chk=JID_10691.chk
%mem=8GB
%nprocshared=4
# opt freq B3LYP/6-31G(d) empiricaldispersion=gd3bj scf=xqc

CID_63776457_JID_10691_neutraal

0 1
C          0.94095        0.08068        0.00196
C          1.14264       -0.15031       -1.48231
O          1.77591       -1.36671       -1.85110
C          3.10368       -1.64525       -1.43222
C          4.22546       -0.94566       -2.23268
C          4.25992        0.58367       -2.31179
N          4.29668        1.23906       -1.00207
C          5.54991        1.07978       -0.23633
C          5.28493        1.38312        1.23670
N          4.90538        2.78931        1.41672
C          4.07703        3.30572        0.38560
C          3.55765        4.61360        0.50973
C          2.76943        5.19515       -0.48074
C          2.49056        4.48550       -1.63451
C          3.00503        3.19741       -1.80324
C          3.81066        2.57201       -0.82825
C          4.60948        3.17871        2.79194
C          3.44264       -1.85205        0.05842
O          4.52276       -1.69549        0.60734
O          2.42823       -2.41149        0.75565
H          0.43990       -0.77382        0.46583
H          0.32326        0.96965        0.16493
H          1.88949        0.24345        0.51900
H          0.14945       -0.18689       -1.94521
H          1.63459        0.70096       -1.94197
H          3.21200       -2.68820       -1.77300
H          5.19934       -1.31054       -1.88462
H          4.14098       -1.29402       -3.27217
H          5.14543        0.88793       -2.88571
H          3.40756        0.87542       -2.92481
H          6.32599        1.74468       -0.64112
H          5.94266        0.06416       -0.32589
H          4.48972        0.73655        1.62813
H          6.19469        1.17949        1.81327
H          3.78011        5.21743        1.38338
H          2.38671        6.20316       -0.34984
H          1.87899        4.93089       -2.41450
H          2.75186        2.70950       -2.73591
H          4.84907        4.23151        2.97099
H          3.55892        2.99288        3.04209
H          5.22411        2.60413        3.49468
H          2.79269       -2.53715        1.65487

--Link1--
%chk=JID_10691.chk
%mem=8GB
%nprocshared=4
# B3LYP/6-311++G(d,p) empiricaldispersion=gd3bj scf=xqc pop=npa geom=check

CID_63776457_JID_10691_Energie_neutraal

0 1

--Link1--
%chk=JID_10691.chk
%mem=8GB
%nprocshared=4
# B3LYP/6-311++G(d,p) empiricaldispersion=gd3bj scf=xqc pop=npa geom=check

CID_63776457_JID_10691_Energie_kation

1 2

--Link1--
%chk=JID_10691.chk
%mem=8GB
%nprocshared=4
# B3LYP/6-311++G(d,p) empiricaldispersion=gd3bj scf=xqc pop=npa geom=check

CID_63776457_JID_10691_Energie_anion

-1 2
