%chk=JID_6617.chk
%mem=8GB
%nprocshared=4
# opt freq B3LYP/6-31G(d) empiricaldispersion=gd3bj scf=xqc

CID_114627464_JID_6617_neutraal

0 1
C          1.08873       -0.03971        0.02348
C          0.58206       -1.12775       -0.90918
C          1.14296       -2.51623       -0.57209
N          0.58274       -3.11140        0.63204
C          0.02243       -4.34847        0.79458
O         -0.41995       -4.64589        1.90595
C         -0.00893       -5.33754       -0.35630
S         -1.25494       -4.93698       -1.62206
C         -2.80327       -4.89585       -0.61197
C         -3.19504       -6.27232       -0.06509
C         -3.73723       -7.20447       -1.14804
N         -4.86537       -6.59889       -1.85475
C         -4.48006       -5.33655       -2.48758
C         -3.95237       -4.33406       -1.46199
C         -0.93794       -1.12775       -0.90918
N         -2.19891       -1.12775       -0.90918
H          0.76357       -0.20700        1.05637
H          0.71392        0.94399       -0.28154
H          2.18297        0.00298        0.01577
H          0.91360       -0.87119       -1.92370
H          0.99337       -3.17989       -1.42572
H          2.22572       -2.45392       -0.41363
H          0.58929       -2.57736        1.49527
H          0.97916       -5.37015       -0.82649
H         -0.18958       -6.34178        0.03822
H         -2.63020       -4.20403        0.21854
H         -2.36287       -6.75326        0.45864
H         -3.97876       -6.13019        0.69202
H         -2.94930       -7.48473       -1.85683
H         -4.07991       -8.13245       -0.67693
H         -5.19763       -7.24268       -2.57247
H         -5.36176       -4.90939       -2.97848
H         -3.74102       -5.51858       -3.27656
H         -4.77698       -4.06036       -0.78932
H         -3.65681       -3.40769       -1.96838

--Link1--
%chk=JID_6617.chk
%mem=8GB
%nprocshared=4
# B3LYP/6-311++G(d,p) empiricaldispersion=gd3bj scf=xqc pop=npa geom=check

CID_114627464_JID_6617_Energie_neutraal

0 1

--Link1--
%chk=JID_6617.chk
%mem=8GB
%nprocshared=4
# B3LYP/6-311++G(d,p) empiricaldispersion=gd3bj scf=xqc pop=npa geom=check

CID_114627464_JID_6617_Energie_kation

1 2

--Link1--
%chk=JID_6617.chk
%mem=8GB
%nprocshared=4
# B3LYP/6-311++G(d,p) empiricaldispersion=gd3bj scf=xqc pop=npa geom=check

CID_114627464_JID_6617_Energie_anion

-1 2
