%chk=JID_6523.chk
%mem=8GB
%nprocshared=4
# opt freq B3LYP/6-31G(d) empiricaldispersion=gd3bj scf=xqc

CID_43213456_JID_6523_neutraal

0 1
C          1.05072        0.06079        0.06109
C          0.25914        1.36495        0.02796
C         -0.36645        1.69229       -1.34637
C         -1.37972        0.63626       -1.77788
S         -1.10607        3.37950       -1.18621
C         -2.06560        3.58880       -2.73265
C         -1.23099        3.87897       -3.97957
O         -0.74704        2.66796       -4.55354
C          0.58804        2.47089       -4.73761
C          1.62809        3.26880       -4.26410
C          2.95975        2.88968       -4.47747
C          3.25924        1.70876       -5.16267
C          2.22032        0.91147       -5.64470
C          0.89429        1.29479       -5.43088
C          4.62326        1.31094       -5.35384
N          5.72671        0.98599       -5.50236
H          0.39969       -0.80941       -0.06012
H          1.55973       -0.04260        1.02497
H          1.80974        0.04273       -0.72722
H         -0.52004        1.31586        0.79955
H          0.94786        2.16951        0.31849
H          0.44086        1.74650       -2.07942
H         -2.23395        0.59039       -1.09459
H         -1.75187        0.81788       -2.78959
H         -0.92325       -0.35796       -1.80913
H         -2.73625        2.73891       -2.88049
H         -2.70443        4.46009       -2.54917
H         -1.90464        4.30600       -4.73334
H         -0.48108        4.65139       -3.79508
H          1.45443        4.17568       -3.69579
H          3.75893        3.51906       -4.08906
H          2.42970       -0.01354       -6.17802
H          0.08764        0.66289       -5.79767

--Link1--
%chk=JID_6523.chk
%mem=8GB
%nprocshared=4
# B3LYP/6-311++G(d,p) empiricaldispersion=gd3bj scf=xqc pop=npa geom=check

CID_43213456_JID_6523_Energie_neutraal

0 1

--Link1--
%chk=JID_6523.chk
%mem=8GB
%nprocshared=4
# B3LYP/6-311++G(d,p) empiricaldispersion=gd3bj scf=xqc pop=npa geom=check

CID_43213456_JID_6523_Energie_kation

1 2

--Link1--
%chk=JID_6523.chk
%mem=8GB
%nprocshared=4
# B3LYP/6-311++G(d,p) empiricaldispersion=gd3bj scf=xqc pop=npa geom=check

CID_43213456_JID_6523_Energie_anion

-1 2
