%chk=JID_7667.chk
%mem=8GB
%nprocshared=4
# opt freq B3LYP/6-31G(d) empiricaldispersion=gd3bj scf=xqc

CID_64727718_JID_7667_neutraal

0 1
C          0.94672        0.04095        0.07406
C          1.52687       -0.87462       -0.99775
C          0.47872       -1.28034       -2.03521
C         -0.52242       -2.31152       -1.49430
N         -1.81079       -2.33533       -2.22107
C         -2.30952       -3.71575       -2.29248
C         -2.86109       -1.42856       -1.67473
C         -3.08773       -1.53359       -0.15383
C         -2.67077        0.06570       -2.05082
C         -2.75303        0.44359       -3.55824
C         -4.15983        0.15169       -4.10727
C         -2.47350        1.95902       -3.80035
O         -2.51528        2.49033       -4.90740
O         -2.15677        2.61684       -2.64915
C         -1.71856        3.97443       -2.79606
C         -0.21788        4.00363       -3.02149
N         -1.76103       -0.30564       -4.35888
H          0.19167       -0.46757        0.67910
H          0.49100        0.93088       -0.37174
H          1.74158        0.37400        0.74932
H          2.33610       -0.33851       -1.50788
H          1.97206       -1.76184       -0.53382
H         -0.00093       -0.37132       -2.39618
H          0.98738       -1.71483       -2.90554
H         -0.01906       -3.28246       -1.61211
H         -0.66588       -2.22109       -0.41534
H         -2.47225       -4.15620       -1.30331
H         -3.24806       -3.76435       -2.85574
H         -1.59876       -4.34890       -2.83619
H         -3.81323       -1.72891       -2.12944
H         -2.27980       -1.06492        0.41679
H         -4.01491       -1.01908        0.12391
H         -3.18975       -2.57200        0.17489
H         -3.45247        0.63959       -1.53037
H         -1.73569        0.42964       -1.61189
H         -4.92395        0.66363       -3.51073
H         -4.27338        0.50432       -5.13951
H         -4.38965       -0.91878       -4.10647
H         -2.25599        4.48994       -3.59967
H         -1.96031        4.49263       -1.86242
H          0.04980        3.48312       -3.94664
H          0.14751        5.03264       -3.08004
H          0.30300        3.48967       -2.20646
H         -1.76040       -1.28451       -4.05121
H         -2.01735       -0.28544       -5.34419

--Link1--
%chk=JID_7667.chk
%mem=8GB
%nprocshared=4
# B3LYP/6-311++G(d,p) empiricaldispersion=gd3bj scf=xqc pop=npa geom=check

CID_64727718_JID_7667_Energie_neutraal

0 1

--Link1--
%chk=JID_7667.chk
%mem=8GB
%nprocshared=4
# B3LYP/6-311++G(d,p) empiricaldispersion=gd3bj scf=xqc pop=npa geom=check

CID_64727718_JID_7667_Energie_kation

1 2

--Link1--
%chk=JID_7667.chk
%mem=8GB
%nprocshared=4
# B3LYP/6-311++G(d,p) empiricaldispersion=gd3bj scf=xqc pop=npa geom=check

CID_64727718_JID_7667_Energie_anion

-1 2
