%chk=JID_4904.chk
%mem=8GB
%nprocshared=4
# opt freq B3LYP/6-31G(d) empiricaldispersion=gd3bj scf=xqc

CID_65244847_JID_4904_neutraal

0 1
C          0.92772        0.06906        0.00259
C          1.03851        1.45418        0.62237
C          1.22490        2.58089       -0.39583
C          0.02095        3.03530       -1.25506
C         -0.50574        4.46081       -0.96913
C         -1.88109        4.59591       -0.28774
C         -2.79600        3.43891       -0.69914
C         -2.09001        2.11092       -0.55281
O         -0.98091        2.04556       -1.43926
N         -1.98611        4.80101        1.16631
C         -0.93847        4.20062        2.01863
C         -1.00175        5.48715        2.88243
C         -1.51336        6.15148        1.58007
N          0.34639        5.96507        3.20963
H          0.02108       -0.04807       -0.59450
H          0.90171       -0.69037        0.79103
H          1.78977       -0.14392       -0.63767
H          0.18588        1.64350        1.27689
H          1.92071        1.44866        1.27553
H          1.66114        3.44987        0.11125
H          2.01542        2.25464       -1.08741
H          0.46553        3.12666       -2.25722
H         -0.63523        4.92824       -1.95825
H          0.25758        5.08495       -0.49173
H         -2.34878        5.49191       -0.72318
H         -3.72812        3.44418       -0.12138
H         -3.07711        3.57845       -1.75158
H         -1.78038        1.92001        0.47630
H         -2.77279        1.30226       -0.83377
H         -1.24587        3.28874        2.53925
H          0.03230        4.02800        1.55345
H         -1.71675        5.46891        3.71129
H         -0.74396        6.60072        0.93949
H         -2.31485        6.88361        1.72096
H          0.79425        5.43045        3.95293
H          1.00095        5.96581        2.42867

--Link1--
%chk=JID_4904.chk
%mem=8GB
%nprocshared=4
# B3LYP/6-311++G(d,p) empiricaldispersion=gd3bj scf=xqc pop=npa geom=check

CID_65244847_JID_4904_Energie_neutraal

0 1

--Link1--
%chk=JID_4904.chk
%mem=8GB
%nprocshared=4
# B3LYP/6-311++G(d,p) empiricaldispersion=gd3bj scf=xqc pop=npa geom=check

CID_65244847_JID_4904_Energie_kation

1 2

--Link1--
%chk=JID_4904.chk
%mem=8GB
%nprocshared=4
# B3LYP/6-311++G(d,p) empiricaldispersion=gd3bj scf=xqc pop=npa geom=check

CID_65244847_JID_4904_Energie_anion

-1 2
