%chk=JID_5995.chk
%mem=8GB
%nprocshared=4
# opt freq B3LYP/6-31G(d) empiricaldispersion=gd3bj scf=xqc

CID_106946858_JID_5995_neutraal

0 1
C          0.90245        0.01099        0.01907
C          0.12377        0.39522       -1.24003
C         -0.00222       -0.82605       -2.15547
C         -1.27799        0.94864       -0.91644
C         -1.28542        2.27586       -0.15595
C         -0.76674        3.41913       -1.01412
O         -1.40501        3.77985       -2.00544
C          0.48910        4.03769       -0.63929
C          1.20321        5.05642       -1.23971
C          2.36497        5.25662       -0.45677
C          2.30494        4.35107        0.58643
O          1.15879        3.61055        0.47208
C          3.18560        4.07954        1.69060
O          3.05682        3.24966        2.57860
O          4.27071        4.88780        1.67163
H          0.35393       -0.72650        0.61482
H          1.09897        0.87958        0.65290
H          1.87301       -0.42367       -0.24384
H          0.69755        1.15599       -1.78254
H         -0.56525       -1.63074       -1.67036
H         -0.51773       -0.56379       -3.08546
H          0.98571       -1.21635       -2.42225
H         -1.83527        1.07635       -1.85363
H         -1.83218        0.20733       -0.32647
H         -2.31954        2.53076        0.10906
H         -0.74928        2.19700        0.79289
H          0.91013        5.58248       -2.13903
H          3.15820        5.97277       -0.62538
H          4.77202        4.59958        2.46228

--Link1--
%chk=JID_5995.chk
%mem=8GB
%nprocshared=4
# B3LYP/6-311++G(d,p) empiricaldispersion=gd3bj scf=xqc pop=npa geom=check

CID_106946858_JID_5995_Energie_neutraal

0 1

--Link1--
%chk=JID_5995.chk
%mem=8GB
%nprocshared=4
# B3LYP/6-311++G(d,p) empiricaldispersion=gd3bj scf=xqc pop=npa geom=check

CID_106946858_JID_5995_Energie_kation

1 2

--Link1--
%chk=JID_5995.chk
%mem=8GB
%nprocshared=4
# B3LYP/6-311++G(d,p) empiricaldispersion=gd3bj scf=xqc pop=npa geom=check

CID_106946858_JID_5995_Energie_anion

-1 2
