%chk=JID_9092.chk
%mem=8GB
%nprocshared=4
# opt freq B3LYP/6-31G(d) empiricaldispersion=gd3bj scf=xqc

CID_8827601_JID_9092_neutraal

0 1
C          0.99558       -0.04941       -0.08683
C          0.64000        0.21915       -1.51806
C          0.67224       -0.80150       -2.46774
C          0.44651       -0.50444       -3.80766
N          0.23615        0.77613       -4.19654
C          0.12576        1.76721       -3.28039
C          0.34190        1.51377       -1.93365
C          0.14713        1.10989       -5.62623
C          1.29377        0.58828       -6.47455
O          1.23280       -0.52860       -6.98750
N          2.34794        1.42341       -6.74676
C          2.98923        2.31022       -5.86429
C          3.15530        2.01122       -4.50988
C          3.82854        2.89443       -3.66399
C          4.35945        4.07604       -4.17598
C          4.24447        4.35849       -5.54078
C          3.57659        3.46266       -6.38813
C          4.80539        5.56663       -6.07022
N          5.24177        6.55056       -6.50091
H          0.72943       -1.07324        0.19636
H          0.45263        0.62415        0.58460
H          2.07046        0.09047        0.06406
H          0.89002       -1.82728       -2.17322
H          0.47282       -1.27646       -4.57374
H         -0.08779        2.77209       -3.63556
H          0.29862        2.33167       -1.21615
H         -0.79169        0.67399       -5.98863
H          0.06557        2.19536       -5.74680
H          2.89417        1.16237       -7.56728
H          2.85902        1.05069       -4.10159
H          3.97585        2.64611       -2.61401
H          4.89114        4.75823       -3.51251
H          3.49723        3.68898       -7.45084

--Link1--
%chk=JID_9092.chk
%mem=8GB
%nprocshared=4
# B3LYP/6-311++G(d,p) empiricaldispersion=gd3bj scf=xqc pop=npa geom=check

CID_8827601_JID_9092_Energie_neutraal

0 1

--Link1--
%chk=JID_9092.chk
%mem=8GB
%nprocshared=4
# B3LYP/6-311++G(d,p) empiricaldispersion=gd3bj scf=xqc pop=npa geom=check

CID_8827601_JID_9092_Energie_kation

1 2

--Link1--
%chk=JID_9092.chk
%mem=8GB
%nprocshared=4
# B3LYP/6-311++G(d,p) empiricaldispersion=gd3bj scf=xqc pop=npa geom=check

CID_8827601_JID_9092_Energie_anion

-1 2
