%chk=JID_4084.chk
%mem=8GB
%nprocshared=4
# opt freq B3LYP/6-31G(d) empiricaldispersion=gd3bj scf=xqc

CID_131041354_JID_4084_neutraal

0 1
C          0.92950        0.00556       -0.07070
C         -0.37435        0.00556       -0.07070
C         -1.89435        0.00556       -0.07070
O         -2.38046       -1.31833        0.18017
C         -2.36420       -2.14043       -0.89582
O         -2.05930       -1.81747       -2.03539
N         -2.72260       -3.42421       -0.59626
C         -3.35022       -3.87200        0.63968
C         -4.88192       -3.85444        0.49213
C         -5.27821       -5.31595        0.36204
C         -4.33027       -6.00745        1.32879
C         -2.98375       -5.30786        1.10103
C         -2.17244       -6.05989        0.13082
N         -1.55107       -6.66387       -0.64081
H          1.99502       -0.00153       -0.07960
H         -2.25145        0.64561        0.74255
H         -2.29130        0.41036       -1.00858
H         -2.75000       -4.01420       -1.42193
H         -3.08041       -3.17166        1.43878
H         -5.23696       -3.25899       -0.35526
H         -5.33144       -3.43837        1.40245
H         -5.11088       -5.66934       -0.66220
H         -6.32812       -5.48512        0.61712
H         -4.30045       -7.09042        1.16946
H         -4.66805       -5.82966        2.35770
H         -2.43358       -5.26458        2.04903

--Link1--
%chk=JID_4084.chk
%mem=8GB
%nprocshared=4
# B3LYP/6-311++G(d,p) empiricaldispersion=gd3bj scf=xqc pop=npa geom=check

CID_131041354_JID_4084_Energie_neutraal

0 1

--Link1--
%chk=JID_4084.chk
%mem=8GB
%nprocshared=4
# B3LYP/6-311++G(d,p) empiricaldispersion=gd3bj scf=xqc pop=npa geom=check

CID_131041354_JID_4084_Energie_kation

1 2

--Link1--
%chk=JID_4084.chk
%mem=8GB
%nprocshared=4
# B3LYP/6-311++G(d,p) empiricaldispersion=gd3bj scf=xqc pop=npa geom=check

CID_131041354_JID_4084_Energie_anion

-1 2
