%chk=JID_3436.chk
%mem=8GB
%nprocshared=4
# opt freq B3LYP/6-31G(d) empiricaldispersion=gd3bj scf=xqc

CID_126747686_JID_3436_neutraal

0 1
C          2.44200       -0.09800       -0.00700
C          0.94846       -0.11394       -0.13366
N          0.22717        0.06685        0.99798
C         -1.12364        0.04715        0.87981
C         -1.80195       -0.14880       -0.31515
C         -1.03687       -0.32202       -1.46713
C          0.35454       -0.30858       -1.37819
S         -3.60142       -0.13390       -0.34778
O         -3.97475        0.08689       -1.78295
N         -3.69939       -1.75126        0.05314
C         -4.35072       -2.14371        1.30573
C         -4.14229       -3.54088        1.82372
C         -3.52100       -2.37680        2.53781
H          2.86517        0.70326       -0.62074
H          2.74354        0.07286        1.03146
H          2.85881       -1.05713       -0.32960
H         -1.65810        0.19915        1.81319
H         -1.51811       -0.46716       -2.43103
H          0.95986       -0.44627       -2.26852
H         -4.06422       -2.31760       -0.71193
H         -5.34986       -1.73543        1.44980
H         -4.98076       -4.03773        2.29800
H         -3.48222       -4.20738        1.28018
H         -2.44333       -2.27709        2.47693
H         -3.93918       -2.08434        3.49386

--Link1--
%chk=JID_3436.chk
%mem=8GB
%nprocshared=4
# B3LYP/6-311++G(d,p) empiricaldispersion=gd3bj scf=xqc pop=npa geom=check

CID_126747686_JID_3436_Energie_neutraal

0 1

--Link1--
%chk=JID_3436.chk
%mem=8GB
%nprocshared=4
# B3LYP/6-311++G(d,p) empiricaldispersion=gd3bj scf=xqc pop=npa geom=check

CID_126747686_JID_3436_Energie_kation

1 2

--Link1--
%chk=JID_3436.chk
%mem=8GB
%nprocshared=4
# B3LYP/6-311++G(d,p) empiricaldispersion=gd3bj scf=xqc pop=npa geom=check

CID_126747686_JID_3436_Energie_anion

-1 2
