%chk=JID_7715.chk
%mem=8GB
%nprocshared=4
# opt freq B3LYP/6-31G(d) empiricaldispersion=gd3bj scf=xqc

CID_116183679_JID_7715_neutraal

0 1
C          0.91669       -0.05064        0.02226
C          0.31899        1.32936       -0.17651
C          0.36795        1.88152       -1.60891
C         -0.33951        1.08362       -2.71858
N          0.43086       -0.07428       -3.19436
C         -0.51351       -1.20744       -3.27303
C         -0.44792       -2.13756       -4.45146
C         -0.02600       -2.61657       -3.09056
C         -1.81067       -0.74269       -2.72383
O         -2.82510       -1.41632       -2.64991
N         -1.63643        0.56662       -2.34772
C         -2.75584        1.42261       -1.97846
C         -3.40203        2.16696       -3.15695
C         -4.09741        1.25361       -4.15951
S         -4.50844        3.49259       -2.52344
O         -5.02053        4.26628       -3.70143
C         -5.86304        2.48115       -1.88958
H          0.30587       -0.82734       -0.44371
H          0.96942       -0.28233        1.09138
H          1.93268       -0.10470       -0.38036
H         -0.71287        1.32315        0.19084
H          0.86217        2.03202        0.46814
H         -0.08418        2.88227       -1.57805
H          1.41533        2.04620       -1.89486
H         -0.48176        1.74188       -3.58382
H          1.16768       -0.28790       -2.52837
H         -1.38018       -2.51738       -4.85431
H          0.32179       -1.96989       -5.19502
H          1.02996       -2.78803       -2.92292
H         -0.67658       -3.31891       -2.58090
H         -3.50135        0.79208       -1.48056
H         -2.39621        2.13370       -1.22725
H         -2.62046        2.71641       -3.69507
H         -4.79695        0.56781       -3.67140
H         -4.65390        1.82655       -4.90858
H         -3.36465        0.64409       -4.69845
H         -6.34608        1.93011       -2.69806
H         -5.50021        1.79581       -1.12203
H         -6.60005        3.15011       -1.43735

--Link1--
%chk=JID_7715.chk
%mem=8GB
%nprocshared=4
# B3LYP/6-311++G(d,p) empiricaldispersion=gd3bj scf=xqc pop=npa geom=check

CID_116183679_JID_7715_Energie_neutraal

0 1

--Link1--
%chk=JID_7715.chk
%mem=8GB
%nprocshared=4
# B3LYP/6-311++G(d,p) empiricaldispersion=gd3bj scf=xqc pop=npa geom=check

CID_116183679_JID_7715_Energie_kation

1 2

--Link1--
%chk=JID_7715.chk
%mem=8GB
%nprocshared=4
# B3LYP/6-311++G(d,p) empiricaldispersion=gd3bj scf=xqc pop=npa geom=check

CID_116183679_JID_7715_Energie_anion

-1 2
