%chk=JID_2710.chk
%mem=8GB
%nprocshared=4
# opt freq B3LYP/6-31G(d) empiricaldispersion=gd3bj scf=xqc

CID_118507799_JID_2710_neutraal

0 1
C          1.01293        0.02431        0.09613
C          0.76194       -1.36929       -0.46840
C          1.31350       -2.52886        0.40405
C          0.82814       -2.41878        1.87142
C         -0.68012       -2.50335        2.06465
C          1.04059       -3.93409       -0.25520
C          1.47956       -4.01548       -1.74415
C          2.96114       -3.77094       -1.99979
C          1.70654       -5.11676        0.51452
N          0.98257       -5.56966        1.71526
C         -0.19702       -6.36622        1.36677
C          1.86888       -6.36093        2.57332
H          0.41297        0.21513        0.99023
H          0.73844        0.78178       -0.64557
H          2.06958        0.16332        0.34514
H         -0.31210       -1.50269       -0.64207
H          1.24159       -1.39002       -1.45222
H          2.40403       -2.39947        0.44494
H          1.31518       -3.18014        2.48737
H          1.17599       -1.47079        2.29913
H         -1.08963       -3.44402        1.69014
H         -0.92124       -2.43923        3.13089
H         -1.19735       -1.68103        1.56230
H         -0.04503       -4.08513       -0.27425
H          1.22354       -5.01018       -2.13248
H          0.88899       -3.31837       -2.34882
H          3.58600       -4.49423       -1.46806
H          3.17432       -3.87338       -3.06899
H          3.26489       -2.76467       -1.69911
H          1.85503       -5.97519       -0.15459
H          2.71305       -4.78452        0.80317
H          0.06597       -7.27065        0.80603
H         -0.73207       -6.67038        2.27375
H         -0.91147       -5.79065        0.77125
H          2.24814       -7.25457        2.06440
H          2.72453       -5.75997        2.90126
H          1.34523       -6.67607        3.48286

--Link1--
%chk=JID_2710.chk
%mem=8GB
%nprocshared=4
# B3LYP/6-311++G(d,p) empiricaldispersion=gd3bj scf=xqc pop=npa geom=check

CID_118507799_JID_2710_Energie_neutraal

0 1

--Link1--
%chk=JID_2710.chk
%mem=8GB
%nprocshared=4
# B3LYP/6-311++G(d,p) empiricaldispersion=gd3bj scf=xqc pop=npa geom=check

CID_118507799_JID_2710_Energie_kation

1 2

--Link1--
%chk=JID_2710.chk
%mem=8GB
%nprocshared=4
# B3LYP/6-311++G(d,p) empiricaldispersion=gd3bj scf=xqc pop=npa geom=check

CID_118507799_JID_2710_Energie_anion

-1 2
