%chk=JID_9387.chk
%mem=8GB
%nprocshared=4
# opt freq B3LYP/6-31G(d) empiricaldispersion=gd3bj scf=xqc

CID_81673027_JID_9387_neutraal

0 1
C          0.98571        0.08284       -0.05416
C          0.34637       -1.15337       -0.66842
N          1.36688       -2.18275       -0.86968
C          0.84113       -3.32236       -1.65125
C          0.73401       -2.98875       -3.11400
N          1.55354       -2.11766       -3.72567
N          1.05756       -2.09670       -4.97746
C         -0.01516       -2.92807       -5.07805
N         -0.23862       -3.51304       -3.92465
C          1.61933       -1.16384       -5.94490
C          0.95989       -1.17745       -7.32848
C          1.47215       -2.33018       -8.17397
O          2.88647       -2.25330       -8.30148
C          3.61050       -2.38387       -7.06808
C          3.15062       -1.28629       -6.08474
C          5.09706       -2.20081       -7.43228
C          5.94033       -2.65402       -6.25515
S          5.09034       -4.11891       -5.61771
C          3.54269       -3.82220       -6.52254
H          1.44906       -0.14852        0.91096
H          0.22806        0.85524        0.11301
H          1.75396        0.50205       -0.71283
H         -0.43364       -1.52844        0.00350
H         -0.13065       -0.86268       -1.61098
H          2.12331       -1.78678       -1.43641
H          1.53860       -4.16059       -1.54410
H         -0.12541       -3.65490       -1.25579
H         -0.59899       -3.07217       -5.97560
H          1.40578       -0.18217       -5.49717
H         -0.13296       -1.19883       -7.26317
H          1.22587       -0.23923       -7.83369
H          1.18120       -3.30535       -7.77125
H          1.04833       -2.25946       -9.18100
H          3.49559       -0.31973       -6.47966
H          3.63245       -1.39861       -5.10719
H          5.34113       -2.79645       -8.32369
H          5.32546       -1.16367       -7.70542
H          5.98165       -1.89115       -5.47217
H          6.96257       -2.89629       -6.55821
H          2.68840       -4.00345       -5.86959
H          3.47962       -4.54598       -7.34298

--Link1--
%chk=JID_9387.chk
%mem=8GB
%nprocshared=4
# B3LYP/6-311++G(d,p) empiricaldispersion=gd3bj scf=xqc pop=npa geom=check

CID_81673027_JID_9387_Energie_neutraal

0 1

--Link1--
%chk=JID_9387.chk
%mem=8GB
%nprocshared=4
# B3LYP/6-311++G(d,p) empiricaldispersion=gd3bj scf=xqc pop=npa geom=check

CID_81673027_JID_9387_Energie_kation

1 2

--Link1--
%chk=JID_9387.chk
%mem=8GB
%nprocshared=4
# B3LYP/6-311++G(d,p) empiricaldispersion=gd3bj scf=xqc pop=npa geom=check

CID_81673027_JID_9387_Energie_anion

-1 2
