%chk=JID_10863.chk
%mem=8GB
%nprocshared=4
# opt freq B3LYP/6-31G(d) empiricaldispersion=gd3bj scf=xqc

CID_65222856_JID_10863_neutraal

0 1
C          1.08569        0.04789       -0.01909
C          0.77830       -1.30074       -0.64988
C          1.30270       -2.49613        0.15285
C          0.74550       -2.63647        1.58376
C         -0.77981       -2.70452        1.69137
N         -1.35857       -3.83814        0.94001
S         -2.87753       -3.63132        0.26045
O         -2.85657       -2.37508       -0.44732
O         -3.17920       -4.87571       -0.40139
N         -3.77924       -3.48589        1.64057
C         -4.24324       -2.17579        2.12387
C         -5.72691       -1.95274        1.78768
O         -6.56417       -3.06830        2.13416
C         -6.09007       -4.37534        1.76533
C         -4.61004       -4.60410        2.11966
C         -6.44455       -4.72725        0.32471
C         -5.96961       -1.46992        0.36222
C          1.34679       -3.80093        2.33579
O          1.50601       -3.85209        3.54541
O          1.66318       -4.85672        1.56455
H          0.55471        0.17923        0.92814
H          0.77272        0.85569       -0.68843
H          2.15871        0.15843        0.16634
H         -0.30061       -1.39124       -0.80902
H          1.23766       -1.32951       -1.64552
H          1.09851       -3.40351       -0.42836
H          2.39751       -2.42806        0.20897
H          1.07927       -1.75038        2.14097
H         -1.07829       -2.81821        2.74079
H         -1.19664       -1.75336        1.34729
H         -0.75009       -4.24252        0.22761
H         -4.12154       -2.17936        3.21510
H         -3.62294       -1.35378        1.75437
H         -6.07373       -1.13633        2.43386
H         -6.67298       -5.06608        2.38756
H         -4.25475       -5.57295        1.75569
H         -4.50552       -4.63409        3.21217
H         -6.31351       -5.79986        0.14796
H         -7.48524       -4.46319        0.10948
H         -5.82445       -4.20319       -0.40283
H         -7.04296       -1.38661        0.16284
H         -5.50956       -0.48842        0.20616
H         -5.55560       -2.14310       -0.38841
H          1.98957       -5.52941        2.19967

--Link1--
%chk=JID_10863.chk
%mem=8GB
%nprocshared=4
# B3LYP/6-311++G(d,p) empiricaldispersion=gd3bj scf=xqc pop=npa geom=check

CID_65222856_JID_10863_Energie_neutraal

0 1

--Link1--
%chk=JID_10863.chk
%mem=8GB
%nprocshared=4
# B3LYP/6-311++G(d,p) empiricaldispersion=gd3bj scf=xqc pop=npa geom=check

CID_65222856_JID_10863_Energie_kation

1 2

--Link1--
%chk=JID_10863.chk
%mem=8GB
%nprocshared=4
# B3LYP/6-311++G(d,p) empiricaldispersion=gd3bj scf=xqc pop=npa geom=check

CID_65222856_JID_10863_Energie_anion

-1 2
