%chk=JID_6737.chk
%mem=8GB
%nprocshared=4
# opt freq B3LYP/6-31G(d) empiricaldispersion=gd3bj scf=xqc

CID_131521455_JID_6737_neutraal

0 1
C          1.07911        0.01469        0.05938
C          0.51558       -0.19087        1.44139
O         -0.40898        0.50281        1.86479
C          1.10532       -1.30990        2.27673
C          0.63187       -2.69347        1.81788
C         -0.84669       -2.93186        2.15535
C         -1.32149       -4.26957        1.58748
C         -0.36908       -5.40759        1.85376
C          0.96157       -5.18050        2.23743
C          1.48285       -3.78686        2.48538
C          1.80927       -6.27666        2.45071
C          1.35488       -7.58460        2.25564
C          0.04246       -7.81469        1.85080
C         -0.80996       -6.72551        1.65289
O         -0.52653       -9.03647        1.61753
C          0.31063      -10.17484        1.77435
H          0.70802        0.95879       -0.34947
H          0.76893       -0.80269       -0.59494
H          2.16963        0.06616        0.10874
H          2.19685       -1.22830        2.21045
H          0.84298       -1.13331        3.32689
H          0.75318       -2.77499        0.72933
H         -0.98367       -2.92484        3.24487
H         -1.47810       -2.13287        1.75080
H         -2.30617       -4.50139        2.01087
H         -1.44207       -4.17590        0.50084
H          2.51161       -3.71108        2.11096
H          1.51461       -3.62743        3.57114
H          2.83683       -6.11776        2.77120
H          2.05149       -8.39725        2.42980
H         -1.83417       -6.91144        1.33525
H          1.15393      -10.14461        1.07637
H          0.65609      -10.27106        2.80895
H         -0.28437      -11.06240        1.53846

--Link1--
%chk=JID_6737.chk
%mem=8GB
%nprocshared=4
# B3LYP/6-311++G(d,p) empiricaldispersion=gd3bj scf=xqc pop=npa geom=check

CID_131521455_JID_6737_Energie_neutraal

0 1

--Link1--
%chk=JID_6737.chk
%mem=8GB
%nprocshared=4
# B3LYP/6-311++G(d,p) empiricaldispersion=gd3bj scf=xqc pop=npa geom=check

CID_131521455_JID_6737_Energie_kation

1 2

--Link1--
%chk=JID_6737.chk
%mem=8GB
%nprocshared=4
# B3LYP/6-311++G(d,p) empiricaldispersion=gd3bj scf=xqc pop=npa geom=check

CID_131521455_JID_6737_Energie_anion

-1 2
