%chk=JID_4159.chk
%mem=8GB
%nprocshared=4
# opt freq B3LYP/6-31G(d) empiricaldispersion=gd3bj scf=xqc

CID_83926717_JID_4159_neutraal

0 1
C          1.08838       -0.04431        0.01502
C          0.68612        0.06169        1.47748
C          1.74498        0.70303        2.36670
S          1.72608        2.48205        2.43238
O          0.34727        2.91745        2.55973
O          2.71516        2.89474        3.41158
C          2.33010        3.03514        0.85797
C          3.65465        2.76503        0.50459
C          4.13481        3.20227       -0.72774
C          3.29848        3.91365       -1.59142
C          1.97263        4.20750       -1.23340
C          1.49283        3.76499        0.00681
C          1.08660        4.99391       -2.16648
N          1.59284        6.34588       -2.36438
H          1.10835        0.93132       -0.47275
H          0.36420       -0.66193       -0.52656
H          2.07320       -0.50946       -0.09296
H         -0.27387        0.58203        1.55924
H          0.51955       -0.96002        1.84130
H          1.55971        0.39071        3.40202
H          2.75642        0.37416        2.10992
H          4.31917        2.23618        1.18344
H          5.16517        3.00567       -1.01426
H          3.68874        4.26555       -2.54560
H          0.47175        3.99230        0.30750
H          1.02935        4.47450       -3.12970
H          0.06557        5.04600       -1.77148
H          0.91626        6.87982       -2.90612
H          1.66039        6.80746       -1.45775

--Link1--
%chk=JID_4159.chk
%mem=8GB
%nprocshared=4
# B3LYP/6-311++G(d,p) empiricaldispersion=gd3bj scf=xqc pop=npa geom=check

CID_83926717_JID_4159_Energie_neutraal

0 1

--Link1--
%chk=JID_4159.chk
%mem=8GB
%nprocshared=4
# B3LYP/6-311++G(d,p) empiricaldispersion=gd3bj scf=xqc pop=npa geom=check

CID_83926717_JID_4159_Energie_kation

1 2

--Link1--
%chk=JID_4159.chk
%mem=8GB
%nprocshared=4
# B3LYP/6-311++G(d,p) empiricaldispersion=gd3bj scf=xqc pop=npa geom=check

CID_83926717_JID_4159_Energie_anion

-1 2
