%chk=JID_5998.chk
%mem=8GB
%nprocshared=4
# opt freq B3LYP/6-31G(d) empiricaldispersion=gd3bj scf=xqc

CID_43647184_JID_5998_neutraal

0 1
C          0.94188        0.04711       -0.06635
C          0.44587       -1.21842       -0.74218
N          0.38753       -2.32679        0.19410
C         -0.68943       -2.80376        0.88652
O         -0.48812       -3.64453        1.76689
C         -2.08691       -2.34522        0.54444
N         -2.44437       -1.12211        1.23728
C         -2.77524       -0.95399        2.55990
C         -3.04302        0.39896        2.71302
C         -2.88221        0.94843        1.41495
N         -2.54081        0.01733        0.51971
C         -3.04596        2.36047        0.98672
C         -3.40693        1.09328        3.93254
O         -3.51468        0.55943        5.03232
C         -2.78512       -2.05399        3.56316
H          0.30012        0.33250        0.77219
H          0.96855        0.87619       -0.77985
H          1.95316       -0.09582        0.32933
H         -0.52866       -1.04641       -1.20205
H          1.14315       -1.51020       -1.53416
H          1.26803       -2.70462        0.52580
H         -2.20532       -2.20095       -0.53325
H         -2.80585       -3.11948        0.83221
H         -4.07474        2.69320        1.15674
H         -2.37259        3.01087        1.55418
H         -2.81976        2.48855       -0.07699
H         -3.58915        2.17524        3.82227
H         -1.86373       -2.03322        4.15348
H         -3.63417       -1.94674        4.24567
H         -2.87598       -3.04121        3.10324

--Link1--
%chk=JID_5998.chk
%mem=8GB
%nprocshared=4
# B3LYP/6-311++G(d,p) empiricaldispersion=gd3bj scf=xqc pop=npa geom=check

CID_43647184_JID_5998_Energie_neutraal

0 1

--Link1--
%chk=JID_5998.chk
%mem=8GB
%nprocshared=4
# B3LYP/6-311++G(d,p) empiricaldispersion=gd3bj scf=xqc pop=npa geom=check

CID_43647184_JID_5998_Energie_kation

1 2

--Link1--
%chk=JID_5998.chk
%mem=8GB
%nprocshared=4
# B3LYP/6-311++G(d,p) empiricaldispersion=gd3bj scf=xqc pop=npa geom=check

CID_43647184_JID_5998_Energie_anion

-1 2
