%chk=JID_3655.chk
%mem=8GB
%nprocshared=4
# opt freq B3LYP/6-31G(d) empiricaldispersion=gd3bj scf=xqc

CID_126575518_JID_3655_neutraal

0 1
C          0.96025       -0.08122       -0.04270
C          0.19631       -1.35885        0.29132
C         -0.51462       -1.41591        1.63136
C         -1.38124       -2.48797        1.94486
C         -2.05357       -2.51407        3.18000
C         -1.86808       -1.50345        4.12816
C         -0.98201       -0.46713        3.83738
C         -0.32052       -0.42133        2.60613
C         -2.55985       -1.56894        5.45660
S         -1.71733       -3.84692        0.82053
C         -0.28862       -4.82581        1.04647
C          0.26949       -5.40109       -0.03040
C          0.24217       -5.07571        2.43081
H          0.30452        0.79526       -0.01360
H          1.38216       -0.15120       -1.05084
H          1.79136        0.08135        0.65133
H          0.90726       -2.19187        0.24245
H         -0.54659       -1.50031       -0.50304
H         -2.72879       -3.33754        3.40686
H         -0.80151        0.32158        4.56485
H          0.34994        0.41561        2.42895
H         -3.54126       -2.04556        5.36235
H         -1.95442       -2.14144        6.16598
H         -2.72467       -0.56508        5.86199
H          1.14122       -6.04104        0.05951
H         -0.12341       -5.25113       -1.03183
H          0.71490       -4.17722        2.83978
H         -0.55973       -5.39279        3.10613
H          0.99774       -5.86947        2.43624

--Link1--
%chk=JID_3655.chk
%mem=8GB
%nprocshared=4
# B3LYP/6-311++G(d,p) empiricaldispersion=gd3bj scf=xqc pop=npa geom=check

CID_126575518_JID_3655_Energie_neutraal

0 1

--Link1--
%chk=JID_3655.chk
%mem=8GB
%nprocshared=4
# B3LYP/6-311++G(d,p) empiricaldispersion=gd3bj scf=xqc pop=npa geom=check

CID_126575518_JID_3655_Energie_kation

1 2

--Link1--
%chk=JID_3655.chk
%mem=8GB
%nprocshared=4
# B3LYP/6-311++G(d,p) empiricaldispersion=gd3bj scf=xqc pop=npa geom=check

CID_126575518_JID_3655_Energie_anion

-1 2
