%chk=JID_10882.chk
%mem=8GB
%nprocshared=4
# opt freq B3LYP/6-31G(d) empiricaldispersion=gd3bj scf=xqc

CID_9835905_JID_10882_neutraal

0 1
C          0.96642       -0.09148       -0.02243
S          1.01514        0.64672        1.62635
C          1.15143       -0.81422        2.62398
N          1.58353       -0.63657        3.88115
C          1.66358       -1.73187        4.65206
C          1.33137       -2.99204        4.21465
C          0.90186       -3.09434        2.90145
N          0.80876       -2.00536        2.10091
C          0.49011       -4.45028        2.34130
C         -0.97971       -4.58190        2.33325
N         -2.13235       -4.71505        2.41072
C          1.08424       -4.75262        0.98379
N          0.40538       -4.97625       -0.12329
C          1.26065       -5.28788       -1.16654
C          0.87598       -5.58584       -2.48917
C          1.85019       -5.89511       -3.44392
C          3.19730       -5.90872       -3.09647
C          3.60405       -5.61598       -1.79083
C          2.61641       -5.30958       -0.83982
S          2.79703       -4.92614        0.82725
H          0.93445        0.70687       -0.76898
H          0.07466       -0.71183       -0.14864
H          1.86122       -0.69406       -0.20286
H          2.01056       -1.55911        5.66713
H          1.40491       -3.84411        4.87890
H          0.87087       -5.22758        3.02067
H         -0.17671       -5.57604       -2.75488
H          1.54885       -6.12692       -4.46297
H          3.94496       -6.15150       -3.84905
H          4.65582       -5.62934       -1.52158

--Link1--
%chk=JID_10882.chk
%mem=8GB
%nprocshared=4
# B3LYP/6-311++G(d,p) empiricaldispersion=gd3bj scf=xqc pop=npa geom=check

CID_9835905_JID_10882_Energie_neutraal

0 1

--Link1--
%chk=JID_10882.chk
%mem=8GB
%nprocshared=4
# B3LYP/6-311++G(d,p) empiricaldispersion=gd3bj scf=xqc pop=npa geom=check

CID_9835905_JID_10882_Energie_kation

1 2

--Link1--
%chk=JID_10882.chk
%mem=8GB
%nprocshared=4
# B3LYP/6-311++G(d,p) empiricaldispersion=gd3bj scf=xqc pop=npa geom=check

CID_9835905_JID_10882_Energie_anion

-1 2
