%chk=JID_5477.chk
%mem=8GB
%nprocshared=4
# opt freq B3LYP/6-31G(d) empiricaldispersion=gd3bj scf=xqc

CID_61766156_JID_5477_neutraal

0 1
C          0.91974        0.05964        0.00138
C          0.92166       -1.41501        0.36045
C          1.84582       -1.80879        1.52480
N          1.19928       -1.72393        2.84030
C          1.29190       -2.99168        3.59073
C          2.69680       -3.37788        3.97560
C          2.97857       -4.78629        4.44011
C          3.53173       -4.30867        3.12890
C          1.47021       -0.54647        3.71315
C          2.39147        0.57203        3.18520
O          2.51228        1.63672        4.13583
C          1.25686        2.28058        4.35282
C          0.28475        1.31548        5.01016
C          0.11251        0.05095        4.17562
O         -0.71222        0.34749        3.04600
H          0.45049        0.66845        0.77521
H          0.35143        0.21727       -0.92141
H          1.93756        0.42443       -0.16792
H         -0.10440       -1.75121        0.55461
H          1.25169       -1.96652       -0.52972
H          2.09465       -2.85579        1.31374
H          2.80653       -1.28816        1.47415
H          0.68496       -2.92126        4.50235
H          0.82338       -3.79037        3.00044
H          3.21712       -2.59566        4.51626
H          3.67200       -4.92072        5.26304
H          2.17856       -5.51752        4.41297
H          3.10803       -4.73164        2.22572
H          4.59580       -4.10866        3.06493
H          1.95298       -0.87520        4.64337
H          2.05124        0.99556        2.23947
H          3.40202        0.17940        3.03115
H          0.86924        2.67098        3.40456
H          1.43366        3.13553        5.01319
H         -0.67866        1.81489        5.16065
H          0.68055        1.03142        5.99276
H         -0.43661       -0.68770        4.77234
H         -0.66721       -0.46298        2.50024

--Link1--
%chk=JID_5477.chk
%mem=8GB
%nprocshared=4
# B3LYP/6-311++G(d,p) empiricaldispersion=gd3bj scf=xqc pop=npa geom=check

CID_61766156_JID_5477_Energie_neutraal

0 1

--Link1--
%chk=JID_5477.chk
%mem=8GB
%nprocshared=4
# B3LYP/6-311++G(d,p) empiricaldispersion=gd3bj scf=xqc pop=npa geom=check

CID_61766156_JID_5477_Energie_kation

1 2

--Link1--
%chk=JID_5477.chk
%mem=8GB
%nprocshared=4
# B3LYP/6-311++G(d,p) empiricaldispersion=gd3bj scf=xqc pop=npa geom=check

CID_61766156_JID_5477_Energie_anion

-1 2
