%chk=JID_7966.chk
%mem=8GB
%nprocshared=4
# opt freq B3LYP/6-31G(d) empiricaldispersion=gd3bj scf=xqc

CID_81919018_JID_7966_neutraal

0 1
C          0.98597        0.05495       -0.08237
C          0.69472       -0.58545       -1.44959
C          1.70975       -1.69863       -1.69990
C         -0.81983       -0.94855       -1.60762
C         -1.29283       -0.82747       -3.07657
C         -1.02950       -2.05815       -3.93717
C         -1.56938       -3.32907       -3.29558
C         -1.06776       -3.51108       -1.86795
C         -1.35239       -2.27640       -1.00239
N         -0.91234       -2.50819        0.36417
C         -1.50540       -2.27969        1.56288
O         -0.83007       -2.50220        2.57373
C         -2.96014       -1.84729        1.70651
C         -3.26316       -0.49561        1.06710
C         -3.96107       -2.93510        1.28493
C         -3.68129       -4.32884        1.85962
N         -3.63832       -4.32893        3.31582
H          0.92072       -0.66449        0.73709
H          0.29280        0.87685        0.12490
H          1.99894        0.47314       -0.06674
H          0.91152        0.20231       -2.18445
H          1.65610       -2.48533       -0.94321
H          1.59038       -2.15099       -2.68489
H          2.72820       -1.29409       -1.66291
H         -1.35070       -0.14042       -1.08468
H         -2.37735       -0.65011       -3.06779
H         -0.85294        0.05627       -3.55342
H          0.04097       -2.16328       -4.13336
H         -1.50408       -1.92068       -4.91615
H         -1.28585       -4.19778       -3.90052
H         -2.66605       -3.29316       -3.29049
H         -0.00083       -3.75234       -1.87893
H         -1.56252       -4.38663       -1.42761
H         -2.44002       -2.18377       -0.98020
H          0.04921       -2.80238        0.48974
H         -3.09440       -1.68330        2.78602
H         -3.45320       -0.56982       -0.00613
H         -4.16340       -0.06080        1.51585
H         -2.43878        0.20854        1.22080
H         -4.96704       -2.62050        1.59411
H         -4.00067       -3.02406        0.19434
H         -4.47817       -5.00678        1.53399
H         -2.74294       -4.73074        1.46262
H         -3.49742       -5.28327        3.64690
H         -2.80682       -3.81891        3.62898

--Link1--
%chk=JID_7966.chk
%mem=8GB
%nprocshared=4
# B3LYP/6-311++G(d,p) empiricaldispersion=gd3bj scf=xqc pop=npa geom=check

CID_81919018_JID_7966_Energie_neutraal

0 1

--Link1--
%chk=JID_7966.chk
%mem=8GB
%nprocshared=4
# B3LYP/6-311++G(d,p) empiricaldispersion=gd3bj scf=xqc pop=npa geom=check

CID_81919018_JID_7966_Energie_kation

1 2

--Link1--
%chk=JID_7966.chk
%mem=8GB
%nprocshared=4
# B3LYP/6-311++G(d,p) empiricaldispersion=gd3bj scf=xqc pop=npa geom=check

CID_81919018_JID_7966_Energie_anion

-1 2
