%chk=JID_9680.chk
%mem=8GB
%nprocshared=4
# opt freq B3LYP/6-31G(d) empiricaldispersion=gd3bj scf=xqc

CID_114126296_JID_9680_neutraal

0 1
C          1.01104       -0.03136       -0.09431
S          0.20918        0.84077        1.27293
C          1.61251        0.96281        2.43221
C          1.50036       -0.00581        3.61108
C          1.69218       -1.49040        3.28541
C          3.05466       -1.87141        2.69791
C          4.27967       -1.47537        3.52976
C          4.32209       -2.05241        4.94377
N          4.35532       -3.50813        4.94766
C          4.53946       -4.29499        6.06426
O          4.99892       -5.42646        5.95703
C          4.21260       -3.75423        7.39106
C          2.92205       -3.33838        7.75752
C          2.75954       -2.85005        9.06039
C          3.85964       -2.77477        9.90500
N          5.10225       -3.17311        9.56281
C          5.24716       -3.67305        8.31455
N          1.81132       -3.54886        6.89155
N          0.62625       -2.82523        7.12037
H          0.30434       -0.11872       -0.92403
H          1.30653       -1.03756        0.20969
H          1.88550        0.52368       -0.44366
H          2.56471        0.85300        1.90504
H          1.59260        1.98437        2.82790
H          2.23737        0.28917        4.36769
H          0.52293        0.12118        4.09496
H          1.52801       -2.06557        4.20318
H          0.90908       -1.82009        2.59280
H          3.06590       -2.95629        2.53509
H          3.16017       -1.42307        1.70365
H          5.17570       -1.80394        2.98738
H          4.34563       -0.38304        3.59043
H          5.22962       -1.70457        5.45079
H          3.47075       -1.70339        5.53257
H          4.74091       -3.96250        4.12570
H          1.79245       -2.53018        9.42957
H          3.75885       -2.39086       10.91668
H          6.25022       -4.01100        8.06675
H          2.11827       -3.60647        5.91237
H         -0.04983       -3.01481        6.37419
H          0.16653       -3.18389        7.96280

--Link1--
%chk=JID_9680.chk
%mem=8GB
%nprocshared=4
# B3LYP/6-311++G(d,p) empiricaldispersion=gd3bj scf=xqc pop=npa geom=check

CID_114126296_JID_9680_Energie_neutraal

0 1

--Link1--
%chk=JID_9680.chk
%mem=8GB
%nprocshared=4
# B3LYP/6-311++G(d,p) empiricaldispersion=gd3bj scf=xqc pop=npa geom=check

CID_114126296_JID_9680_Energie_kation

1 2

--Link1--
%chk=JID_9680.chk
%mem=8GB
%nprocshared=4
# B3LYP/6-311++G(d,p) empiricaldispersion=gd3bj scf=xqc pop=npa geom=check

CID_114126296_JID_9680_Energie_anion

-1 2
