%chk=JID_6719.chk
%mem=8GB
%nprocshared=4
# opt freq B3LYP/6-31G(d) empiricaldispersion=gd3bj scf=xqc

CID_69286841_JID_6719_neutraal

0 1
C          0.95844        0.06967       -0.05848
C          0.05068       -0.97950        0.58097
C         -0.11991       -0.63516        2.06922
C         -1.33719       -1.19854       -0.09510
C         -2.15922        0.07381       -0.36842
C         -1.85116        0.77310       -1.69263
C         -1.88178       -0.19549       -2.88325
C         -0.96047       -1.39938       -2.64908
C         -1.27597       -2.10859       -1.33712
C         -1.55127        0.49894       -4.19464
C         -2.46948        0.46174       -5.25599
C         -2.18028        1.08125       -6.47508
C         -0.96748        1.74152       -6.63658
C         -0.04329        1.79036       -5.60243
C         -0.33199        1.16934       -4.38606
O         -0.64352        2.35765       -7.80896
H          0.55242        1.07944        0.05315
H          1.13588       -0.12623       -1.11608
H          1.93953        0.06678        0.43095
H          0.58856       -1.93661        0.54842
H         -0.62071        0.32785        2.20890
H         -0.70645       -1.40319        2.58436
H          0.85475       -0.57996        2.56673
H         -1.91767       -1.77580        0.64082
H         -3.22009       -0.21182       -0.38659
H         -2.05957        0.78883        0.45522
H         -0.88392        1.27867       -1.62712
H         -2.58908        1.57067       -1.85020
H         -2.90928       -0.58088       -2.95265
H          0.09196       -1.10189       -2.66672
H         -1.07642       -2.11570       -3.47316
H         -0.56297       -2.92651       -1.18014
H         -2.25818       -2.58873       -1.44865
H         -3.41994       -0.05512       -5.14163
H         -2.90791        1.03536       -7.27854
H          0.90178        2.30747       -5.74132
H          0.40841        1.21148       -3.59094
H         -1.37654        2.23481       -8.43348

--Link1--
%chk=JID_6719.chk
%mem=8GB
%nprocshared=4
# B3LYP/6-311++G(d,p) empiricaldispersion=gd3bj scf=xqc pop=npa geom=check

CID_69286841_JID_6719_Energie_neutraal

0 1

--Link1--
%chk=JID_6719.chk
%mem=8GB
%nprocshared=4
# B3LYP/6-311++G(d,p) empiricaldispersion=gd3bj scf=xqc pop=npa geom=check

CID_69286841_JID_6719_Energie_kation

1 2

--Link1--
%chk=JID_6719.chk
%mem=8GB
%nprocshared=4
# B3LYP/6-311++G(d,p) empiricaldispersion=gd3bj scf=xqc pop=npa geom=check

CID_69286841_JID_6719_Energie_anion

-1 2
