%chk=JID_6099.chk
%mem=8GB
%nprocshared=4
# opt freq B3LYP/6-31G(d) empiricaldispersion=gd3bj scf=xqc

CID_62713985_JID_6099_neutraal

0 1
C          1.04936        0.07622        0.04187
C          0.84332        1.06414       -1.10771
C          1.68059        0.62641       -2.31459
C         -0.63953        1.19103       -1.52715
C         -1.62355        1.64715       -0.42674
C         -1.15338        2.93905        0.26126
N         -3.03175        1.75079       -0.83477
C         -3.72695        0.52433       -1.21545
C         -3.70169        0.23857       -2.72976
C         -3.95372        1.43620       -3.64049
C         -3.39476        2.73997       -3.09568
C         -3.52608        2.90254       -1.57751
C         -4.97403        3.16578       -1.10719
C         -5.89726        1.93859       -0.94967
C         -5.14817        0.63337       -0.63320
N         -6.85705        1.76873       -2.04533
H          0.64420       -0.91057       -0.20652
H          0.56533        0.42138        0.95996
H          2.11536       -0.04318        0.26409
H          1.21633        2.04603       -0.79395
H          1.37175       -0.36045       -2.67630
H          1.57604        1.33836       -3.14014
H          2.74277        0.57370       -2.05300
H         -0.68734        1.88862       -2.36922
H         -0.95468        0.21276       -1.90415
H         -1.60625        0.88188        0.36020
H         -0.92928        3.72882       -0.46336
H         -1.91055        3.31294        0.96015
H         -0.24817        2.76389        0.85150
H         -3.26718       -0.33932       -0.71619
H         -4.41844       -0.55546       -2.97336
H         -2.72121       -0.17151       -2.99481
H         -3.51671        1.23818       -4.62746
H         -5.01986        1.55333       -3.83598
H         -2.33732        2.80593       -3.37344
H         -3.88082        3.58104       -3.60578
H         -2.97204        3.81018       -1.31391
H         -5.44147        3.93494       -1.73516
H         -4.90240        3.62679       -0.11003
H         -6.54024        2.14986       -0.08478
H         -5.74324       -0.24378       -0.91939
H         -5.06127        0.56878        0.46193
H         -6.98011        2.63487       -2.56417
H         -6.55757        1.05160       -2.69857

--Link1--
%chk=JID_6099.chk
%mem=8GB
%nprocshared=4
# B3LYP/6-311++G(d,p) empiricaldispersion=gd3bj scf=xqc pop=npa geom=check

CID_62713985_JID_6099_Energie_neutraal

0 1

--Link1--
%chk=JID_6099.chk
%mem=8GB
%nprocshared=4
# B3LYP/6-311++G(d,p) empiricaldispersion=gd3bj scf=xqc pop=npa geom=check

CID_62713985_JID_6099_Energie_kation

1 2

--Link1--
%chk=JID_6099.chk
%mem=8GB
%nprocshared=4
# B3LYP/6-311++G(d,p) empiricaldispersion=gd3bj scf=xqc pop=npa geom=check

CID_62713985_JID_6099_Energie_anion

-1 2
