%chk=JID_10584.chk
%mem=8GB
%nprocshared=4
# opt freq B3LYP/6-31G(d) empiricaldispersion=gd3bj scf=xqc

CID_88519818_JID_10584_neutraal

0 1
C          0.96047        0.04215       -0.08161
C          0.10219        1.18561        0.43088
N          0.67353        2.45973        0.05139
C          0.10355        3.43138       -0.71398
O          0.72695        4.44424       -0.99795
O         -1.15305        3.13209       -1.11128
C         -1.92705        4.06802       -1.92798
C         -2.12704        5.38289       -1.17079
C         -1.44579        4.13947       -3.44176
C         -1.01965        2.69423       -3.89656
N         -2.07052        1.67492       -3.78112
C         -2.60045        4.70430       -4.37845
C         -2.77877        6.22842       -4.41952
O         -2.59056        4.22421       -5.75718
C         -1.56080        4.48720       -6.59140
O         -0.51942        5.05826       -6.29792
N         -1.76762        4.01555       -7.85448
C         -2.99419        3.43663       -8.35755
C         -3.92311        4.50520       -8.90491
N         -0.27633        5.03727       -3.54696
H          1.02442        0.06187       -1.17474
H          0.53661       -0.91994        0.22164
H          1.97956        0.10866        0.31382
H         -0.91934        1.08535        0.05348
H          0.06456        1.16334        1.52457
H          1.59875        2.69956        0.38243
H         -2.91985        3.59893       -1.93953
H         -1.28266        6.06719       -1.29045
H         -3.03389        5.89515       -1.49921
H         -2.23427        5.19387       -0.09658
H         -0.67213        2.70160       -4.93373
H         -0.15377        2.35332       -3.31596
H         -1.72742        0.80531       -4.18872
H         -2.22181        1.47187       -2.79192
H         -3.54393        4.30325       -3.98673
H         -1.91188        6.73241       -4.85795
H         -3.63120        6.48465       -5.05965
H         -2.96040        6.66237       -3.43752
H         -1.02533        4.24160       -8.50206
H         -2.71831        2.73636       -9.15220
H         -3.49403        2.87128       -7.56476
H         -3.44049        5.06162       -9.71573
H         -4.83798        4.05210       -9.29843
H         -4.20095        5.22455       -8.12765
H          0.47716        4.74668       -2.91898
H          0.08475        5.03406       -4.50797

--Link1--
%chk=JID_10584.chk
%mem=8GB
%nprocshared=4
# B3LYP/6-311++G(d,p) empiricaldispersion=gd3bj scf=xqc pop=npa geom=check

CID_88519818_JID_10584_Energie_neutraal

0 1

--Link1--
%chk=JID_10584.chk
%mem=8GB
%nprocshared=4
# B3LYP/6-311++G(d,p) empiricaldispersion=gd3bj scf=xqc pop=npa geom=check

CID_88519818_JID_10584_Energie_kation

1 2

--Link1--
%chk=JID_10584.chk
%mem=8GB
%nprocshared=4
# B3LYP/6-311++G(d,p) empiricaldispersion=gd3bj scf=xqc pop=npa geom=check

CID_88519818_JID_10584_Energie_anion

-1 2
