%chk=JID_10943.chk
%mem=8GB
%nprocshared=4
# opt freq B3LYP/6-31G(d) empiricaldispersion=gd3bj scf=xqc

CID_79095103_JID_10943_neutraal

0 1
C          1.01250       -0.05645        0.08159
C          0.15301        1.16600       -0.19667
C          0.90303        2.19381       -0.95923
C          1.56520        3.34540       -0.60052
C          2.10850        3.87638       -1.79592
C          1.73337        3.03099       -2.82683
O          1.00194        1.99656       -2.30148
C          1.99635        3.00697       -4.25221
O          2.04805        1.96965       -4.91532
N          2.22239        4.18239       -4.93133
C          1.78229        5.51426       -4.57926
C          2.91098        6.50878       -4.44815
C          4.23014        6.12225       -4.15707
C          5.24130        7.08169       -4.00119
C          4.93529        8.44104       -4.13293
C          3.62858        8.83703       -4.41308
C          2.62444        7.87878       -4.56289
C          6.63296        6.67430       -3.68412
S          7.46205        5.42714       -4.42147
N          7.25995        7.39534       -2.70032
H          1.34864       -0.52556       -0.84953
H          0.44333       -0.79917        0.64951
H          1.90194        0.20839        0.66365
H         -0.73991        0.86765       -0.75795
H         -0.19360        1.59067        0.75253
H          1.66278        3.74021        0.40121
H          2.72234        4.76054       -1.88510
H          2.42070        4.01350       -5.90939
H          1.12682        5.82870       -5.40061
H          1.17577        5.50986       -3.67044
H          4.47243        5.06753       -4.04075
H          5.71224        9.19557       -4.03994
H          3.39172        9.89307       -4.51966
H          1.60936        8.21078       -4.77599
H          6.79123        8.09985       -2.14513
H          8.19589        7.12289       -2.42117

--Link1--
%chk=JID_10943.chk
%mem=8GB
%nprocshared=4
# B3LYP/6-311++G(d,p) empiricaldispersion=gd3bj scf=xqc pop=npa geom=check

CID_79095103_JID_10943_Energie_neutraal

0 1

--Link1--
%chk=JID_10943.chk
%mem=8GB
%nprocshared=4
# B3LYP/6-311++G(d,p) empiricaldispersion=gd3bj scf=xqc pop=npa geom=check

CID_79095103_JID_10943_Energie_kation

1 2

--Link1--
%chk=JID_10943.chk
%mem=8GB
%nprocshared=4
# B3LYP/6-311++G(d,p) empiricaldispersion=gd3bj scf=xqc pop=npa geom=check

CID_79095103_JID_10943_Energie_anion

-1 2
