%chk=JID_8883.chk
%mem=8GB
%nprocshared=4
# opt freq B3LYP/6-31G(d) empiricaldispersion=gd3bj scf=xqc

CID_11345876_JID_8883_neutraal

0 1
C          0.94573       -0.08199        0.01824
C          0.57608       -0.26279        1.50458
C         -0.00027        1.07833        2.11146
C         -1.40307        1.29945        1.62242
C         -2.16580        0.28088        1.19761
C         -1.71524       -1.16258        1.20525
O         -0.36402       -1.35358        1.65654
C         -1.87749       -1.79674       -0.18133
C         -2.58583       -1.94213        2.20176
O         -0.08507        1.04875        3.54893
C          0.81791        2.05315        4.00604
C          0.88723        3.03039        2.86722
O          0.80210        2.20288        1.70936
C          1.83620       -0.70777        2.30616
C          2.47058       -2.03277        1.85984
C          3.48244       -1.86392        0.75999
O          4.14177       -0.86949        0.50972
O          3.65707       -2.99467        0.04895
H          0.14393        0.40148       -0.54823
H          1.12470       -1.04644       -0.46813
H          1.83635        0.54379       -0.10058
H         -1.79804        2.30865        1.63867
H         -3.17998        0.48458        0.86271
H         -1.47954       -2.81814       -0.18996
H         -2.92909       -1.83349       -0.48781
H         -1.33311       -1.24614       -0.95354
H         -2.46320       -1.54962        3.21874
H         -3.64953       -1.89770        1.94273
H         -2.28493       -2.99587        2.24171
H          1.78947        1.58334        4.18967
H          0.45972        2.49975        4.93702
H          1.80867        3.61787        2.85655
H          0.02935        3.71147        2.86805
H          2.58379        0.09426        2.30727
H          1.53313       -0.86443        3.34990
H          3.01002       -2.47419        2.70635
H          1.70437       -2.74805        1.54425
H          4.34564       -2.75930       -0.60719

--Link1--
%chk=JID_8883.chk
%mem=8GB
%nprocshared=4
# B3LYP/6-311++G(d,p) empiricaldispersion=gd3bj scf=xqc pop=npa geom=check

CID_11345876_JID_8883_Energie_neutraal

0 1

--Link1--
%chk=JID_8883.chk
%mem=8GB
%nprocshared=4
# B3LYP/6-311++G(d,p) empiricaldispersion=gd3bj scf=xqc pop=npa geom=check

CID_11345876_JID_8883_Energie_kation

1 2

--Link1--
%chk=JID_8883.chk
%mem=8GB
%nprocshared=4
# B3LYP/6-311++G(d,p) empiricaldispersion=gd3bj scf=xqc pop=npa geom=check

CID_11345876_JID_8883_Energie_anion

-1 2
