%chk=JID_10197.chk
%mem=8GB
%nprocshared=4
# opt freq B3LYP/6-31G(d) empiricaldispersion=gd3bj scf=xqc

CID_120379916_JID_10197_neutraal

0 1
C          2.57300       -1.56500        0.04100
C          1.71360       -0.37672       -0.18305
C          2.12390        0.90052       -0.53661
O          1.04453        1.73402       -0.62968
C         -0.06331        0.99523       -0.36081
C         -1.37113        1.47422       -0.36279
C         -2.37502        0.54896       -0.06006
C         -2.06543       -0.78249        0.22806
C         -0.73698       -1.23267        0.22294
C          0.28927       -0.31797       -0.08048
C          3.47013        1.48677       -0.78866
N          3.36564        2.74444       -1.49849
C          3.36738        4.00850       -0.98456
O          3.27657        4.96322       -1.75885
C          3.60407        4.21844        0.51208
N          2.63809        3.52228        1.34412
C          2.78114        3.17357        2.65513
O          1.88792        2.54508        3.22378
C          4.08599        3.52500        3.37227
N          5.09544        2.48990        3.09990
H          2.18930       -2.17541        0.86473
H          2.60497       -2.18378       -0.86128
H          3.59748       -1.27387        0.29391
H         -1.59197        2.51040       -0.58686
H         -3.41319        0.87395       -0.04656
H         -2.86558       -1.48111        0.46330
H         -0.51011       -2.26918        0.45228
H          4.02200        1.61146        0.14580
H          4.04732        0.81411       -1.43189
H          3.13059        2.70721       -2.48167
H          4.62322        3.90335        0.75082
H          3.51094        5.28599        0.73691
H          1.75413        3.24176        0.92653
H          4.44679        4.50799        3.05718
H          3.88343        3.57844        4.44730
H          5.90156        2.65892        3.70070
H          4.70834        1.59457        3.40793

--Link1--
%chk=JID_10197.chk
%mem=8GB
%nprocshared=4
# B3LYP/6-311++G(d,p) empiricaldispersion=gd3bj scf=xqc pop=npa geom=check

CID_120379916_JID_10197_Energie_neutraal

0 1

--Link1--
%chk=JID_10197.chk
%mem=8GB
%nprocshared=4
# B3LYP/6-311++G(d,p) empiricaldispersion=gd3bj scf=xqc pop=npa geom=check

CID_120379916_JID_10197_Energie_kation

1 2

--Link1--
%chk=JID_10197.chk
%mem=8GB
%nprocshared=4
# B3LYP/6-311++G(d,p) empiricaldispersion=gd3bj scf=xqc pop=npa geom=check

CID_120379916_JID_10197_Energie_anion

-1 2
