%chk=JID_3433.chk
%mem=8GB
%nprocshared=4
# opt freq B3LYP/6-31G(d) empiricaldispersion=gd3bj scf=xqc

CID_116090411_JID_3433_neutraal

0 1
C          1.06571        0.01919        0.07290
C          0.85518        1.01363       -1.05863
C          1.18731        0.44268       -2.44362
C          0.36903       -0.79858       -2.90131
C         -1.15966       -0.56506       -2.75406
N         -1.63732        0.54386       -3.58338
C         -3.09500        0.63776       -3.62250
C         -3.70354        1.14527       -2.32262
C          0.76820       -1.27913       -4.34838
C          2.28129       -1.20269       -4.60661
C          0.32660       -2.73431       -4.63231
O         -1.08536       -2.83153       -4.78047
C         -1.50115       -4.16195       -5.05375
H          0.36707       -0.81974        0.00795
H          0.90566        0.50998        1.03829
H          2.08540       -0.37857        0.06103
H         -0.16932        1.39841       -1.02892
H          1.50742        1.87808       -0.88243
H          1.07846        1.24554       -3.18342
H          2.25265        0.18335       -2.42546
H          0.63013       -1.61661       -2.21590
H         -1.70002       -1.48313       -2.99635
H         -1.39327       -0.36894       -1.70225
H         -1.24280        1.42203       -3.25268
H         -3.35979        1.33908       -4.42209
H         -3.53961       -0.32459       -3.90154
H         -3.26811        2.10662       -2.03035
H         -4.78177        1.28998       -2.44660
H         -3.55688        0.43608       -1.50236
H          0.27768       -0.62361       -5.07903
H          2.84138       -1.76424       -3.85141
H          2.53334       -1.61674       -5.58936
H          2.63532       -0.16722       -4.60985
H          0.78662       -3.08525       -5.56428
H          0.65824       -3.39366       -3.82080
H         -1.22021       -4.82758       -4.23195
H         -2.59001       -4.16896       -5.15163
H         -1.06379       -4.51585       -5.99225

--Link1--
%chk=JID_3433.chk
%mem=8GB
%nprocshared=4
# B3LYP/6-311++G(d,p) empiricaldispersion=gd3bj scf=xqc pop=npa geom=check

CID_116090411_JID_3433_Energie_neutraal

0 1

--Link1--
%chk=JID_3433.chk
%mem=8GB
%nprocshared=4
# B3LYP/6-311++G(d,p) empiricaldispersion=gd3bj scf=xqc pop=npa geom=check

CID_116090411_JID_3433_Energie_kation

1 2

--Link1--
%chk=JID_3433.chk
%mem=8GB
%nprocshared=4
# B3LYP/6-311++G(d,p) empiricaldispersion=gd3bj scf=xqc pop=npa geom=check

CID_116090411_JID_3433_Energie_anion

-1 2
