%chk=JID_7591.chk
%mem=8GB
%nprocshared=4
# opt freq B3LYP/6-31G(d) empiricaldispersion=gd3bj scf=xqc

CID_59735564_JID_7591_neutraal

0 1
C          1.09109        0.03426       -0.02302
C         -0.33915        0.33107        0.39864
C         -0.81086        1.73290        0.00482
C         -0.93725        1.92958       -1.50883
C         -1.65383        3.22925       -1.89602
C         -1.04819        4.52850       -1.36149
O          0.02409        5.00675       -2.16658
C          1.33370        4.58769       -1.80083
C          1.84574        5.19681       -0.48357
C          3.31004        4.78314       -0.26609
C          3.88989        5.38632        0.97117
C          3.28623        6.61901        1.60589
O          4.44395        6.69954        0.76932
C          2.03678        7.22717        1.02763
C          1.65079        6.72971       -0.38013
C          2.36483        7.52650       -1.47799
C          3.57283        6.91394        3.04476
H          1.19048        0.01217       -1.11223
H          1.40063       -0.94380        0.35902
H          1.78153        0.78644        0.37174
H         -1.01093       -0.42375       -0.02605
H         -0.40585        0.23662        1.48915
H         -1.78819        1.90743        0.47127
H         -0.11934        2.47067        0.42639
H          0.04523        1.88525       -1.98595
H         -1.51305        1.09484       -1.92876
H         -1.70558        3.27822       -2.99056
H         -2.68590        3.15969       -1.52959
H         -1.82498        5.29881       -1.43540
H         -0.78463        4.47465       -0.30310
H          1.38481        3.49742       -1.75732
H          1.99212        4.88637       -2.62449
H          1.26194        4.75669        0.33622
H          3.36231        3.69039       -0.18194
H          3.92760        5.05231       -1.13160
H          4.47117        4.69199        1.56220
H          2.11837        8.32078        1.03787
H          1.20898        6.97642        1.70460
H          0.58101        6.94959       -0.49845
H          1.98072        7.26051       -2.46772
H          2.19164        8.60020       -1.34517
H          3.44533        7.36446       -1.48433
H          2.79322        6.48443        3.68200
H          4.53422        6.49665        3.36326
H          3.60213        7.99460        3.21690

--Link1--
%chk=JID_7591.chk
%mem=8GB
%nprocshared=4
# B3LYP/6-311++G(d,p) empiricaldispersion=gd3bj scf=xqc pop=npa geom=check

CID_59735564_JID_7591_Energie_neutraal

0 1

--Link1--
%chk=JID_7591.chk
%mem=8GB
%nprocshared=4
# B3LYP/6-311++G(d,p) empiricaldispersion=gd3bj scf=xqc pop=npa geom=check

CID_59735564_JID_7591_Energie_kation

1 2

--Link1--
%chk=JID_7591.chk
%mem=8GB
%nprocshared=4
# B3LYP/6-311++G(d,p) empiricaldispersion=gd3bj scf=xqc pop=npa geom=check

CID_59735564_JID_7591_Energie_anion

-1 2
