%chk=JID_4311.chk
%mem=8GB
%nprocshared=4
# opt freq B3LYP/6-31G(d) empiricaldispersion=gd3bj scf=xqc

CID_131183098_JID_4311_neutraal

0 1
C          1.07209        0.04507       -0.05264
N          0.70309        1.04989       -1.03854
C         -0.62757        0.83491       -1.61256
C         -1.79098        0.95942       -0.62774
C         -3.15594        0.80075       -1.28614
C         -4.08381        1.37380       -0.22593
N         -3.33686        2.51388        0.29090
C         -1.90606        2.31933        0.05770
C         -3.72265        3.08392        1.58770
C         -3.34187        2.27712        2.84977
C         -4.36811        1.22543        3.26230
C         -5.78592        1.78607        3.27166
N         -6.13616        2.38319        1.98658
C         -5.22397        3.48588        1.64946
H          0.98883       -0.96649       -0.46276
H          0.46543        0.11752        0.85478
H          2.11653        0.19416        0.23903
H          0.76389        1.97803       -0.62297
H         -0.75607        1.56674       -2.41960
H         -0.65936       -0.14859       -2.09808
H         -1.70634        0.18152        0.14393
H         -3.38675       -0.24369       -1.51728
H         -3.22079        1.38429       -2.21305
H         -5.04258        1.66847       -0.66275
H         -4.25941        0.60646        0.52994
H         -1.29072        2.34629        0.96199
H         -1.55385        3.12409       -0.59826
H         -3.16572        4.02981        1.65167
H         -2.35865        1.80549        2.75463
H         -3.24350        2.99011        3.68026
H         -4.31079        0.35539        2.60142
H         -4.11976        0.85628        4.26475
H         -6.48913        0.97477        3.48945
H         -5.89535        2.52543        4.07457
H         -7.08889        2.74319        2.02634
H         -5.34525        4.28488        2.39325
H         -5.53176        3.92103        0.69088

--Link1--
%chk=JID_4311.chk
%mem=8GB
%nprocshared=4
# B3LYP/6-311++G(d,p) empiricaldispersion=gd3bj scf=xqc pop=npa geom=check

CID_131183098_JID_4311_Energie_neutraal

0 1

--Link1--
%chk=JID_4311.chk
%mem=8GB
%nprocshared=4
# B3LYP/6-311++G(d,p) empiricaldispersion=gd3bj scf=xqc pop=npa geom=check

CID_131183098_JID_4311_Energie_kation

1 2

--Link1--
%chk=JID_4311.chk
%mem=8GB
%nprocshared=4
# B3LYP/6-311++G(d,p) empiricaldispersion=gd3bj scf=xqc pop=npa geom=check

CID_131183098_JID_4311_Energie_anion

-1 2
