%chk=JID_9504.chk
%mem=8GB
%nprocshared=4
# opt freq B3LYP/6-31G(d) empiricaldispersion=gd3bj scf=xqc

CID_107851892_JID_9504_neutraal

0 1
C          1.06481        0.07123        0.02696
C         -0.10638        1.00627       -0.26177
C         -0.03217        1.48023       -1.71876
C         -1.48626        0.35843       -0.01831
C         -1.88361        0.01373        1.42926
C         -1.27610       -1.29228        1.93161
O         -1.54511        1.03704        2.36734
C         -2.30061        2.23764        2.20132
C         -2.16093        3.13277        3.43574
C         -0.70445        3.44310        3.83558
N         -0.05718        4.31794        2.83772
C          1.10124        5.02664        3.39089
C          2.27215        4.14512        3.84346
C          3.00697        3.39461        2.72698
C          3.70601        4.33756        1.74236
C          4.81425        3.65651        0.93082
C          4.33654        2.52704        0.02980
O          3.39569        3.02483       -0.90919
O         -2.84629        4.37128        3.19728
H          0.90148       -0.92135       -0.40531
H          1.22408       -0.03596        1.10265
H          1.99676        0.46554       -0.38946
H          0.00323        1.89290        0.37266
H         -0.11762        0.63915       -2.41512
H         -0.83768        2.18884       -1.93963
H          0.91521        1.99015       -1.91775
H         -2.24149        1.06587       -0.38859
H         -1.59470       -0.53555       -0.64639
H         -2.97233       -0.13153        1.45071
H         -1.75836       -1.58437        2.87194
H         -1.41462       -2.10546        1.21312
H         -0.21428       -1.19398        2.16615
H         -1.96784        2.77297        1.30553
H         -3.36315        2.00452        2.05702
H         -2.64955        2.64047        4.28457
H         -0.74215        3.97030        4.79737
H         -0.13333        2.52005        3.97961
H          0.24593        3.74354        2.04843
H          1.44962        5.74108        2.63701
H          0.77061        5.63988        4.23857
H          2.99508        4.78326        4.36806
H          1.92878        3.41864        4.58926
H          2.31478        2.73452        2.19231
H          3.75634        2.74748        3.19965
H          2.96711        4.78127        1.06513
H          4.16385        5.16755        2.29471
H          5.28775        4.42565        0.30782
H          5.58447        3.27446        1.61098
H          5.18553        2.10971       -0.52154
H          3.87304        1.72254        0.60757
H          3.20497        2.30194       -1.52995
H         -2.15770        4.95745        2.81719

--Link1--
%chk=JID_9504.chk
%mem=8GB
%nprocshared=4
# B3LYP/6-311++G(d,p) empiricaldispersion=gd3bj scf=xqc pop=npa geom=check

CID_107851892_JID_9504_Energie_neutraal

0 1

--Link1--
%chk=JID_9504.chk
%mem=8GB
%nprocshared=4
# B3LYP/6-311++G(d,p) empiricaldispersion=gd3bj scf=xqc pop=npa geom=check

CID_107851892_JID_9504_Energie_kation

1 2

--Link1--
%chk=JID_9504.chk
%mem=8GB
%nprocshared=4
# B3LYP/6-311++G(d,p) empiricaldispersion=gd3bj scf=xqc pop=npa geom=check

CID_107851892_JID_9504_Energie_anion

-1 2
