%chk=JID_10746.chk
%mem=8GB
%nprocshared=4
# opt freq B3LYP/6-31G(d) empiricaldispersion=gd3bj scf=xqc

CID_79121024_JID_10746_neutraal

0 1
C          1.01166       -0.08102       -0.05744
C         -0.47194        0.15176       -0.32509
C         -0.65418        1.01830       -1.56637
O         -1.15578       -1.08014       -0.57380
C         -1.37599       -1.86414        0.59724
C         -2.28748       -3.03794        0.24871
C         -1.68490       -3.97106       -0.79890
N         -0.55365       -4.71275       -0.26912
C          0.70466       -4.81530       -0.79386
O          1.50935       -5.58020       -0.25625
C          1.09131       -3.96861       -2.01282
N          0.44859       -4.45267       -3.26585
C          0.88054       -5.83734       -3.52645
C          0.73929       -3.56536       -4.43172
C         -0.08730       -4.00325       -5.66701
C          0.10359       -3.08493       -6.87527
C         -0.18084       -1.61486       -6.56833
C          0.64183       -1.16939       -5.36023
C          0.46070       -2.07006       -4.13619
N         -1.60652       -1.37758       -6.34059
H          1.46689       -0.67169       -0.85944
H          1.16328       -0.63799        0.87210
H          1.55104        0.86747        0.02961
H         -0.93349        0.66474        0.52721
H         -0.23209        0.53121       -2.45202
H         -1.71933        1.17261       -1.77057
H         -0.17817        1.99596       -1.44376
H         -0.42257       -2.22737        0.99282
H         -1.86332       -1.25084        1.36371
H         -2.52195       -3.59819        1.16134
H         -3.23023       -2.64522       -0.15128
H         -2.43091       -4.72122       -1.08360
H         -1.42247       -3.41874       -1.70219
H         -0.71901       -5.36046        0.49086
H          0.78989       -2.94815       -1.76206
H          2.18448       -3.97062       -2.10600
H          1.95344       -5.89700       -3.74116
H          0.66307       -6.49647       -2.67972
H          0.33078       -6.28147       -4.36064
H          1.80557       -3.65313       -4.68488
H          0.20133       -5.00862       -5.99110
H         -1.15173       -4.05166       -5.40428
H         -0.53143       -3.43155       -7.70019
H          1.13944       -3.17923       -7.22708
H          0.11447       -1.01116       -7.43435
H          0.39338       -0.13501       -5.09118
H          1.70421       -1.16573       -5.63788
H         -0.55275       -1.94970       -3.73380
H          1.15291       -1.69586       -3.37378
H         -2.14534       -1.73716       -7.12762
H         -1.92999       -1.89194       -5.52207

--Link1--
%chk=JID_10746.chk
%mem=8GB
%nprocshared=4
# B3LYP/6-311++G(d,p) empiricaldispersion=gd3bj scf=xqc pop=npa geom=check

CID_79121024_JID_10746_Energie_neutraal

0 1

--Link1--
%chk=JID_10746.chk
%mem=8GB
%nprocshared=4
# B3LYP/6-311++G(d,p) empiricaldispersion=gd3bj scf=xqc pop=npa geom=check

CID_79121024_JID_10746_Energie_kation

1 2

--Link1--
%chk=JID_10746.chk
%mem=8GB
%nprocshared=4
# B3LYP/6-311++G(d,p) empiricaldispersion=gd3bj scf=xqc pop=npa geom=check

CID_79121024_JID_10746_Energie_anion

-1 2
