%chk=JID_7690.chk
%mem=8GB
%nprocshared=4
# opt freq B3LYP/6-31G(d) empiricaldispersion=gd3bj scf=xqc

CID_133656238_JID_7690_neutraal

0 1
C          0.93942        0.07441       -0.02816
C          0.31285        0.82434       -1.19104
C         -0.99474        0.23196       -1.66208
C         -1.66206        1.39674       -2.37647
N         -1.04849        2.61636       -1.81574
N         -0.11252        2.17360       -0.79818
C         -1.00247       -1.08830       -2.42559
O         -1.35070       -2.12561       -1.84979
N         -0.79003       -1.15848       -3.77113
C          0.15503       -0.51331       -4.57788
C         -0.19342       -0.24688       -5.90358
C          0.71443        0.37073       -6.78101
C          2.01655        0.66233       -6.33072
C          2.37338        0.33402       -5.01520
C          1.45292       -0.26302       -4.15153
C          3.03395        1.31215       -7.22827
C          0.28455        0.66597       -8.19248
H          1.22236       -0.93933       -0.33019
H          0.25177       -0.00705        0.82104
H          1.84326        0.58471        0.32216
H          1.04817        0.93269       -1.98538
H         -1.61271        0.03148       -0.76980
H         -2.74222        1.40274       -2.19363
H         -1.51915        1.38685       -3.46024
H         -0.58175        3.12570       -2.57263
H          0.68570        2.80133       -0.67561
H         -1.17386       -2.00554       -4.17881
H         -1.19534       -0.48863       -6.25308
H          3.38488        0.51799       -4.65859
H          1.79572       -0.59436       -3.17645
H          3.14897        0.74093       -8.15484
H          2.72836        2.33617       -7.46486
H          4.01858        1.35956       -6.75093
H          0.76916       -0.02899       -8.88536
H         -0.79964        0.56295       -8.30936
H          0.53963        1.69416       -8.46800

--Link1--
%chk=JID_7690.chk
%mem=8GB
%nprocshared=4
# B3LYP/6-311++G(d,p) empiricaldispersion=gd3bj scf=xqc pop=npa geom=check

CID_133656238_JID_7690_Energie_neutraal

0 1

--Link1--
%chk=JID_7690.chk
%mem=8GB
%nprocshared=4
# B3LYP/6-311++G(d,p) empiricaldispersion=gd3bj scf=xqc pop=npa geom=check

CID_133656238_JID_7690_Energie_kation

1 2

--Link1--
%chk=JID_7690.chk
%mem=8GB
%nprocshared=4
# B3LYP/6-311++G(d,p) empiricaldispersion=gd3bj scf=xqc pop=npa geom=check

CID_133656238_JID_7690_Energie_anion

-1 2
