%chk=JID_10917.chk
%mem=8GB
%nprocshared=4
# opt freq B3LYP/6-31G(d) empiricaldispersion=gd3bj scf=xqc

CID_130354634_JID_10917_neutraal

0 1
C          1.06499       -0.07153       -0.02570
C         -0.09125        0.15214        0.93600
C          0.09579        1.37826        1.83191
C          0.09067        2.72983        1.10872
C         -1.25066        3.05234        0.43879
C         -1.33913        4.50411       -0.04870
C         -0.44135        4.80750       -1.25070
C         -1.20849        5.00153       -2.55163
O         -2.32398        5.51010       -2.61216
N         -0.52311        4.68104       -3.70527
C          0.03438        3.49492       -4.08941
N          0.63210        3.49618       -5.21312
C          1.30646        2.30003       -5.69339
C          1.30140        1.07083       -4.76332
C          2.71059        1.02951       -4.22237
C          3.45863        1.91173       -4.88901
N          2.73852        2.56608       -5.86021
C          0.28829        1.17057       -3.66338
O         -0.16348        0.18456       -3.08168
N         -0.10493        2.41877       -3.29083
H          1.16825        0.75805       -0.72977
H          0.90284       -0.98682       -0.60362
H          2.00966       -0.17867        0.51693
H         -1.02915        0.22326        0.37547
H         -0.17981       -0.73267        1.57805
H         -0.69719        1.38054        2.59008
H          1.04225        1.27912        2.37820
H          0.31199        3.50589        1.85237
H          0.90444        2.76473        0.37760
H         -1.43824        2.37046       -0.39678
H         -2.05506        2.89155        1.16733
H         -2.38844        4.72566       -0.27365
H         -1.05872        5.16654        0.78004
H          0.05696        5.76992       -1.07243
H          0.35902        4.07408       -1.36395
H         -0.85108        5.18906       -4.51808
H          0.88035        2.02973       -6.66629
H          1.10440        0.15954       -5.34103
H          3.05111        0.38293       -3.42751
H          4.50551        2.14574       -4.74062
H          2.95099        3.55645       -5.94617
H         -0.80576        2.41784       -2.56539

--Link1--
%chk=JID_10917.chk
%mem=8GB
%nprocshared=4
# B3LYP/6-311++G(d,p) empiricaldispersion=gd3bj scf=xqc pop=npa geom=check

CID_130354634_JID_10917_Energie_neutraal

0 1

--Link1--
%chk=JID_10917.chk
%mem=8GB
%nprocshared=4
# B3LYP/6-311++G(d,p) empiricaldispersion=gd3bj scf=xqc pop=npa geom=check

CID_130354634_JID_10917_Energie_kation

1 2

--Link1--
%chk=JID_10917.chk
%mem=8GB
%nprocshared=4
# B3LYP/6-311++G(d,p) empiricaldispersion=gd3bj scf=xqc pop=npa geom=check

CID_130354634_JID_10917_Energie_anion

-1 2
