%chk=JID_3185.chk
%mem=8GB
%nprocshared=4
# opt freq B3LYP/6-31G(d) empiricaldispersion=gd3bj scf=xqc

CID_67423411_JID_3185_neutraal

0 1
C          0.93738       -0.06295        0.04600
C          0.78490       -0.24763        1.54474
S          1.69732        0.99393        2.51820
C          3.45030        0.58992        2.12163
C          4.08876       -0.47326        3.03185
C          3.61309       -1.89532        2.80441
C          3.01999       -2.73007        3.73788
C          2.68946       -4.00882        3.20555
C          3.04338       -4.11975        1.88134
S          3.77182       -2.69306        1.29210
S          5.94482       -0.45755        3.16889
C          6.51295        0.43123        1.68188
C          6.44085       -0.38767        0.40819
H          0.65882        0.94955       -0.26454
H          0.27753       -0.76166       -0.47962
H          1.95533       -0.26505       -0.29661
H         -0.27293       -0.12985        1.80388
H          1.06427       -1.25687        1.84927
H          3.55015        0.36070        1.05993
H          3.95860        1.54526        2.28792
H          3.79565       -0.21325        4.05881
H          2.83313       -2.43339        4.76368
H          2.22123       -4.80751        3.76769
H          2.91548       -4.97439        1.23122
H          5.99874        1.38854        1.56928
H          7.56502        0.67660        1.86578
H          5.41232       -0.53495        0.07431
H          6.96206        0.13992       -0.39810
H          6.92121       -1.36448        0.52551

--Link1--
%chk=JID_3185.chk
%mem=8GB
%nprocshared=4
# B3LYP/6-311++G(d,p) empiricaldispersion=gd3bj scf=xqc pop=npa geom=check

CID_67423411_JID_3185_Energie_neutraal

0 1

--Link1--
%chk=JID_3185.chk
%mem=8GB
%nprocshared=4
# B3LYP/6-311++G(d,p) empiricaldispersion=gd3bj scf=xqc pop=npa geom=check

CID_67423411_JID_3185_Energie_kation

1 2

--Link1--
%chk=JID_3185.chk
%mem=8GB
%nprocshared=4
# B3LYP/6-311++G(d,p) empiricaldispersion=gd3bj scf=xqc pop=npa geom=check

CID_67423411_JID_3185_Energie_anion

-1 2
