%chk=JID_3726.chk
%mem=8GB
%nprocshared=4
# opt freq B3LYP/6-31G(d) empiricaldispersion=gd3bj scf=xqc

CID_130496236_JID_3726_neutraal

0 1
C          1.05238       -0.07849       -0.03311
C          0.44784        0.02627       -1.42180
N          1.00856       -0.94870       -2.33619
C          2.01826       -0.74445       -3.22875
C          2.21119       -1.95569       -3.85094
C          1.25825       -2.82361       -3.27432
N          0.53191       -2.20568       -2.34629
N          1.09047       -4.13058       -3.55187
C          1.43169       -4.73493       -4.83607
C          2.55929       -5.78166       -4.65444
C          2.10033       -6.97095       -3.80669
C          3.05370       -6.26816       -6.01640
O          3.67086       -5.16778       -3.98792
H          0.87055       -1.06584        0.40442
H          0.61475        0.67428        0.62970
H          2.13581        0.07906       -0.06207
H         -0.63541       -0.13412       -1.38900
H          0.62723        1.02131       -1.84334
H          2.51188        0.21085       -3.33455
H          2.95175       -2.17874       -4.60486
H          0.29037       -4.55203       -3.08752
H          0.53760       -5.21112       -5.25630
H          1.74639       -3.97170       -5.55761
H          1.24367       -7.48067       -4.25924
H          2.91215       -7.69777       -3.68710
H          1.82378       -6.65649       -2.79431
H          3.44433       -5.43376       -6.61008
H          3.88128       -6.97755       -5.90143
H          2.25482       -6.75511       -6.58495
H          3.27441       -4.66882       -3.24425

--Link1--
%chk=JID_3726.chk
%mem=8GB
%nprocshared=4
# B3LYP/6-311++G(d,p) empiricaldispersion=gd3bj scf=xqc pop=npa geom=check

CID_130496236_JID_3726_Energie_neutraal

0 1

--Link1--
%chk=JID_3726.chk
%mem=8GB
%nprocshared=4
# B3LYP/6-311++G(d,p) empiricaldispersion=gd3bj scf=xqc pop=npa geom=check

CID_130496236_JID_3726_Energie_kation

1 2

--Link1--
%chk=JID_3726.chk
%mem=8GB
%nprocshared=4
# B3LYP/6-311++G(d,p) empiricaldispersion=gd3bj scf=xqc pop=npa geom=check

CID_130496236_JID_3726_Energie_anion

-1 2
