%chk=JID_9476.chk
%mem=8GB
%nprocshared=4
# opt freq B3LYP/6-31G(d) empiricaldispersion=gd3bj scf=xqc

CID_19458309_JID_9476_neutraal

0 1
C          2.54100        1.06400        0.00800
C          1.29289        0.25046       -0.17643
C          0.14839        0.52808        0.58807
C         -1.04077       -0.19353        0.40172
C         -1.05605       -1.21193       -0.56539
C          0.06782       -1.47581       -1.35591
C          1.23812       -0.74364       -1.16083
C         -2.26870       -2.01962       -0.80699
O         -3.03468       -1.63768       -1.68763
N         -2.46644       -3.16250       -0.03308
C         -1.58382       -3.58109        1.04980
C         -3.72726       -3.87897       -0.18305
C         -4.67915       -3.44392        0.87579
C         -5.34786       -2.24538        1.03506
C         -6.10896       -2.40200        2.20320
N         -5.95145       -3.60795        2.75098
N         -5.09386       -4.23146        1.91997
C         -4.71933       -5.59804        2.19941
C         -2.25405        0.12862        1.22567
H          2.51587        1.94089       -0.64615
H          2.63913        1.39856        1.04608
H          3.43134        0.47140       -0.22723
H          0.18448        1.32340        1.33119
H          0.02753       -2.24425       -2.12362
H          2.10558       -0.94930       -1.78417
H         -2.00673       -3.24907        2.00215
H         -1.50515       -4.67226        1.04515
H         -0.57869       -3.16871        0.94862
H         -4.16678       -3.67789       -1.16666
H         -3.51786       -4.95291       -0.14863
H         -5.28307       -1.38109        0.38788
H         -6.77200       -1.69039        2.67770
H         -5.21635       -5.93533        3.11290
H         -5.03274       -6.22037        1.35776
H         -3.63598       -5.64024        2.33262
H         -2.09511        1.02340        1.83697
H         -3.11530        0.32734        0.57995
H         -2.48682       -0.69897        1.90217

--Link1--
%chk=JID_9476.chk
%mem=8GB
%nprocshared=4
# B3LYP/6-311++G(d,p) empiricaldispersion=gd3bj scf=xqc pop=npa geom=check

CID_19458309_JID_9476_Energie_neutraal

0 1

--Link1--
%chk=JID_9476.chk
%mem=8GB
%nprocshared=4
# B3LYP/6-311++G(d,p) empiricaldispersion=gd3bj scf=xqc pop=npa geom=check

CID_19458309_JID_9476_Energie_kation

1 2

--Link1--
%chk=JID_9476.chk
%mem=8GB
%nprocshared=4
# B3LYP/6-311++G(d,p) empiricaldispersion=gd3bj scf=xqc pop=npa geom=check

CID_19458309_JID_9476_Energie_anion

-1 2
