%chk=JID_10018.chk
%mem=8GB
%nprocshared=4
# opt freq B3LYP/6-31G(d) empiricaldispersion=gd3bj scf=xqc

CID_106609445_JID_10018_neutraal

0 1
C          0.98796        0.08713       -0.04757
C          1.45717        0.08210        1.40039
N          1.33254        1.39545        2.03464
C          0.12178        1.65440        2.82555
C          0.30950        1.37347        4.32961
C          0.21637       -0.10244        4.69550
C         -0.13797       -0.09661        6.17578
C         -0.62910        1.31421        6.46441
N         -0.75534        1.97173        5.16003
C          2.33587        2.32687        1.80088
O          3.28077        2.08179        1.04478
C          2.28740        3.67560        2.49078
C          2.07776        4.79466        1.47623
O          0.77413        5.36848        1.60496
C         -0.27064        4.83766        0.90674
C         -1.52405        5.32178        1.29583
C         -2.69103        4.85797        0.68727
C         -2.61093        3.90596       -0.32455
C         -1.36522        3.42596       -0.72564
C         -0.19589        3.89198       -0.11406
H         -0.06504        0.37911       -0.11411
H          1.09476       -0.91038       -0.48457
H          1.56768        0.78953       -0.65445
H          0.88640       -0.65296        1.97659
H          2.50754       -0.22957        1.43590
H         -0.16011        2.70084        2.69141
H         -0.70564        1.06711        2.40865
H          1.27476        1.77548        4.66409
H         -0.58223       -0.60223        4.13292
H          1.15050       -0.63993        4.50596
H         -0.90755       -0.84561        6.39039
H          0.74047       -0.32861        6.78779
H         -1.58191        1.31590        7.00292
H          0.09974        1.85470        7.07923
H         -1.66451        1.73320        4.76093
H          1.56610        3.72401        3.30662
H          3.27508        3.79262        2.95632
H          2.76573        5.60871        1.73534
H          2.32496        4.52921        0.44350
H         -1.59025        6.06353        2.08855
H         -3.65706        5.24212        1.00344
H         -3.51616        3.54331       -0.80419
H         -1.29991        2.68731       -1.52070
H          0.74920        3.49142       -0.46345

--Link1--
%chk=JID_10018.chk
%mem=8GB
%nprocshared=4
# B3LYP/6-311++G(d,p) empiricaldispersion=gd3bj scf=xqc pop=npa geom=check

CID_106609445_JID_10018_Energie_neutraal

0 1

--Link1--
%chk=JID_10018.chk
%mem=8GB
%nprocshared=4
# B3LYP/6-311++G(d,p) empiricaldispersion=gd3bj scf=xqc pop=npa geom=check

CID_106609445_JID_10018_Energie_kation

1 2

--Link1--
%chk=JID_10018.chk
%mem=8GB
%nprocshared=4
# B3LYP/6-311++G(d,p) empiricaldispersion=gd3bj scf=xqc pop=npa geom=check

CID_106609445_JID_10018_Energie_anion

-1 2
