%chk=JID_7964.chk
%mem=8GB
%nprocshared=4
# opt freq B3LYP/6-31G(d) empiricaldispersion=gd3bj scf=xqc

CID_61978455_JID_7964_neutraal

0 1
C          0.92528        0.04987        0.04394
N          0.60930        1.44376        0.34601
C          0.09249        1.63428        1.71281
C          1.34365        1.61725        2.59810
C          2.47439        2.07643        1.67332
C          1.79226        2.32131        0.32232
C          1.25878        3.76379        0.18935
C          0.34619        4.16443        1.36953
C         -0.61033        3.00867        1.73325
N         -0.37925        5.40420        1.04902
C         -0.91995        6.10492        2.21249
C          0.09953        6.95476        2.98532
C          0.79525        8.06560        2.18410
C         -0.11831        9.12055        1.53481
N         -0.38332       10.31852        2.35186
C         -1.13394       11.29982        1.56073
C         -1.10496       10.03030        3.58811
H          0.01423       -0.55739        0.08175
H          1.65791       -0.39681        0.72381
H          1.31576       -0.03337       -0.97628
H         -0.62888        0.86268        2.00471
H          1.24886        2.26009        3.47930
H          1.55216        0.60107        2.95341
H          3.22274        1.27933        1.58995
H          2.98359        2.96540        2.05936
H          2.46072        2.11083       -0.52011
H          0.70916        3.85115       -0.75842
H          2.10231        4.46337        0.12697
H          1.00404        4.35745        2.22531
H         -1.45265        2.98575        1.02787
H         -1.03932        3.17571        2.72846
H          0.21302        6.02602        0.50292
H         -1.73589        6.74677        1.86491
H         -1.39488        5.40080        2.90478
H         -0.41042        7.38162        3.85359
H          0.87657        6.30046        3.39936
H          1.52664        8.56464        2.83313
H          1.39319        7.59820        1.39156
H          0.41183        9.45902        0.63391
H         -1.05384        8.67502        1.18091
H         -2.11992       10.92292        1.26496
H         -1.27473       12.22688        2.12802
H         -0.58143       11.57282        0.65469
H         -2.01777        9.45064        3.41182
H         -0.46512        9.49222        4.29277
H         -1.38519       10.95769        4.10179

--Link1--
%chk=JID_7964.chk
%mem=8GB
%nprocshared=4
# B3LYP/6-311++G(d,p) empiricaldispersion=gd3bj scf=xqc pop=npa geom=check

CID_61978455_JID_7964_Energie_neutraal

0 1

--Link1--
%chk=JID_7964.chk
%mem=8GB
%nprocshared=4
# B3LYP/6-311++G(d,p) empiricaldispersion=gd3bj scf=xqc pop=npa geom=check

CID_61978455_JID_7964_Energie_kation

1 2

--Link1--
%chk=JID_7964.chk
%mem=8GB
%nprocshared=4
# B3LYP/6-311++G(d,p) empiricaldispersion=gd3bj scf=xqc pop=npa geom=check

CID_61978455_JID_7964_Energie_anion

-1 2
