%chk=JID_5517.chk
%mem=8GB
%nprocshared=4
# opt freq B3LYP/6-31G(d) empiricaldispersion=gd3bj scf=xqc

CID_69329212_JID_5517_neutraal

0 1
C          0.97273       -0.04564        0.08470
C          0.43872       -0.35147       -1.30962
C          0.91552       -1.69088       -1.83201
C          1.88949       -1.81991       -2.75003
C          2.29081       -3.18865       -3.22899
O          3.16821       -3.35662       -4.07002
C          1.60008       -4.37325       -2.64369
C          0.62425       -4.22483       -1.72952
C          0.19925       -2.87476       -1.29157
O         -0.73192       -2.74048       -0.50395
C         -0.10095       -5.37405       -1.08742
O         -0.92539       -6.01358       -2.05427
C          2.04683       -5.72357       -3.14007
O          2.50591       -0.65475       -3.20037
C          3.35718       -0.71677       -4.33722
H          0.63478       -0.78443        0.81824
H          0.62190        0.93775        0.41396
H          2.06784       -0.03350        0.09287
H         -0.65790       -0.32448       -1.29769
H          0.73476        0.46290       -1.98146
H          0.61176       -6.11185       -0.70379
H         -0.72515       -5.08787       -0.23565
H         -1.70524       -5.44350       -2.17545
H          2.28963       -6.38775       -2.30426
H          1.25832       -6.18633       -3.74291
H          2.94344       -5.67758       -3.76482
H          4.29461       -1.22493       -4.09268
H          2.85194       -1.17441       -5.19350
H          3.60978        0.31058       -4.61766

--Link1--
%chk=JID_5517.chk
%mem=8GB
%nprocshared=4
# B3LYP/6-311++G(d,p) empiricaldispersion=gd3bj scf=xqc pop=npa geom=check

CID_69329212_JID_5517_Energie_neutraal

0 1

--Link1--
%chk=JID_5517.chk
%mem=8GB
%nprocshared=4
# B3LYP/6-311++G(d,p) empiricaldispersion=gd3bj scf=xqc pop=npa geom=check

CID_69329212_JID_5517_Energie_kation

1 2

--Link1--
%chk=JID_5517.chk
%mem=8GB
%nprocshared=4
# B3LYP/6-311++G(d,p) empiricaldispersion=gd3bj scf=xqc pop=npa geom=check

CID_69329212_JID_5517_Energie_anion

-1 2
