%chk=JID_3544.chk
%mem=8GB
%nprocshared=4
# opt freq B3LYP/6-31G(d) empiricaldispersion=gd3bj scf=xqc

CID_22723195_JID_3544_neutraal

0 1
C          2.49200        0.00400       -0.01400
C          0.99542       -0.05745        0.06758
C          0.36135       -1.15670        0.65634
C         -1.03254       -1.22830        0.70589
C         -1.81697       -0.20709        0.15612
C         -1.18140        0.88558       -0.44673
C          0.21273        0.95687       -0.49469
C         -3.32575       -0.30135        0.18005
C         -3.91879       -0.73906       -1.17005
N         -3.59976       -2.13575       -1.47425
C         -4.02616       -2.55173       -2.81582
C         -3.25226       -1.90192       -3.97300
O         -1.84522       -2.02783       -3.78668
H          2.95193       -0.52469        0.82752
H          2.83473       -0.45210       -0.94782
H          2.84217        1.04089        0.02400
H          0.94951       -1.96626        1.08310
H         -1.50338       -2.09223        1.17105
H         -1.76743        1.69080       -0.88411
H          0.68534        1.81252       -0.97196
H         -3.65067       -0.98316        0.97650
H         -3.73077        0.68299        0.44832
H         -5.00832       -0.62804       -1.12159
H         -3.55241       -0.06839       -1.95469
H         -2.59901       -2.30737       -1.37165
H         -3.86530       -3.63505       -2.86857
H         -5.10232       -2.38916       -2.94429
H         -3.51115       -2.39870       -4.91338
H         -3.49599       -0.84058       -4.08135
H         -1.61248       -1.48165       -3.01483

--Link1--
%chk=JID_3544.chk
%mem=8GB
%nprocshared=4
# B3LYP/6-311++G(d,p) empiricaldispersion=gd3bj scf=xqc pop=npa geom=check

CID_22723195_JID_3544_Energie_neutraal

0 1

--Link1--
%chk=JID_3544.chk
%mem=8GB
%nprocshared=4
# B3LYP/6-311++G(d,p) empiricaldispersion=gd3bj scf=xqc pop=npa geom=check

CID_22723195_JID_3544_Energie_kation

1 2

--Link1--
%chk=JID_3544.chk
%mem=8GB
%nprocshared=4
# B3LYP/6-311++G(d,p) empiricaldispersion=gd3bj scf=xqc pop=npa geom=check

CID_22723195_JID_3544_Energie_anion

-1 2
