%chk=JID_5381.chk
%mem=8GB
%nprocshared=4
# opt freq B3LYP/6-31G(d) empiricaldispersion=gd3bj scf=xqc

CID_115619465_JID_5381_neutraal

0 1
C          1.01967       -0.08760        0.04404
C          0.81918        1.33960        0.52205
N          0.94362        2.25122       -0.63010
S          0.52406        3.86601       -0.37020
O          0.82727        4.18117        1.00777
O          1.13216        4.60369       -1.45575
C         -1.24763        3.86938       -0.59339
C         -1.68223        3.43350       -1.98725
N         -1.76856        1.96953       -2.10003
C         -2.06627        1.50495       -3.46990
C         -3.51148        1.83201       -3.88044
C         -3.85019        1.37083       -5.29308
S         -3.70197       -0.42494       -5.48231
C         -1.99873       -0.61646       -4.89634
C         -1.80065       -0.01100       -3.51301
H          0.26781       -0.36143       -0.70336
H          0.93850       -0.78570        0.88280
H          2.00662       -0.21444       -0.41337
H         -0.17174        1.43408        0.97643
H          1.58348        1.58174        1.26729
H          1.84369        2.21248       -1.11519
H         -1.69874        3.26338        0.19864
H         -1.55418        4.90857       -0.42609
H         -2.67763        3.85650       -2.15760
H         -1.01166        3.84179       -2.75107
H         -0.86229        1.58249       -1.81376
H         -1.37093        1.98789       -4.16950
H         -4.21851        1.39174       -3.16454
H         -3.67552        2.91526       -3.84915
H         -4.87973        1.65330       -5.53571
H         -3.19842        1.85895       -6.02567
H         -1.31917       -0.15705       -5.62197
H         -1.76842       -1.68631       -4.86678
H         -0.76422       -0.20800       -3.20785
H         -2.43897       -0.53072       -2.78513

--Link1--
%chk=JID_5381.chk
%mem=8GB
%nprocshared=4
# B3LYP/6-311++G(d,p) empiricaldispersion=gd3bj scf=xqc pop=npa geom=check

CID_115619465_JID_5381_Energie_neutraal

0 1

--Link1--
%chk=JID_5381.chk
%mem=8GB
%nprocshared=4
# B3LYP/6-311++G(d,p) empiricaldispersion=gd3bj scf=xqc pop=npa geom=check

CID_115619465_JID_5381_Energie_kation

1 2

--Link1--
%chk=JID_5381.chk
%mem=8GB
%nprocshared=4
# B3LYP/6-311++G(d,p) empiricaldispersion=gd3bj scf=xqc pop=npa geom=check

CID_115619465_JID_5381_Energie_anion

-1 2
