%chk=JID_4329.chk
%mem=8GB
%nprocshared=4
# opt freq B3LYP/6-31G(d) empiricaldispersion=gd3bj scf=xqc

CID_149375773_JID_4329_neutraal

0 1
C          1.07327       -0.04040       -0.05476
C          0.30430        1.26626       -0.16856
C          0.24225        1.74006       -1.59284
C         -0.85973        1.86496       -2.35000
C         -2.21001        1.52534       -1.94632
C         -2.58450        0.24180       -2.08240
N         -3.04987        2.46372       -1.37034
C         -2.90959        3.80461       -1.05434
C         -3.61473        4.35815       -0.04637
C         -3.51116        5.80916        0.33777
C         -2.22013        6.49893       -0.15494
C         -1.73890        5.92700       -1.46293
C         -2.07997        4.69053       -1.85891
C         -2.43289        8.00984       -0.25216
H          0.58404       -0.83782       -0.62434
H          1.12787       -0.35682        0.99180
H          2.09727        0.06703       -0.42838
H         -0.69271        1.13554        0.26469
H          0.80514        2.03533        0.43099
H          1.19266        2.03853       -2.03111
H         -0.76582        2.25223       -3.36201
H         -3.56821       -0.10027       -1.78237
H         -1.91553       -0.50220       -2.50447
H         -3.83278        2.03139       -0.89020
H         -4.29217        3.75259        0.54722
H         -3.55458        5.89152        1.43094
H         -4.40103        6.32221       -0.04902
H         -1.42582        6.32356        0.58353
H         -1.08981        6.52938       -2.09159
H         -1.74233        4.33405       -2.82492
H         -2.75873        8.41741        0.71089
H         -1.50428        8.51947       -0.53245
H         -3.19201        8.26095       -1.00153

--Link1--
%chk=JID_4329.chk
%mem=8GB
%nprocshared=4
# B3LYP/6-311++G(d,p) empiricaldispersion=gd3bj scf=xqc pop=npa geom=check

CID_149375773_JID_4329_Energie_neutraal

0 1

--Link1--
%chk=JID_4329.chk
%mem=8GB
%nprocshared=4
# B3LYP/6-311++G(d,p) empiricaldispersion=gd3bj scf=xqc pop=npa geom=check

CID_149375773_JID_4329_Energie_kation

1 2

--Link1--
%chk=JID_4329.chk
%mem=8GB
%nprocshared=4
# B3LYP/6-311++G(d,p) empiricaldispersion=gd3bj scf=xqc pop=npa geom=check

CID_149375773_JID_4329_Energie_anion

-1 2
