%chk=JID_7673.chk
%mem=8GB
%nprocshared=4
# opt freq B3LYP/6-31G(d) empiricaldispersion=gd3bj scf=xqc

CID_114482050_JID_7673_neutraal

0 1
C          2.49200        0.00400       -0.01400
C          0.98907        0.06458        0.00191
C          0.19139       -1.09468       -0.10533
C         -1.21058       -0.96323       -0.08273
C         -1.81910        0.28628        0.04328
C         -1.03252        1.43381        0.14559
C          0.36436        1.31960        0.12324
C         -1.65471        2.77504        0.27161
S         -2.92559        3.15468        1.28586
N         -1.12241        3.75967       -0.52128
C          0.77604       -2.48898       -0.21608
N          0.65697       -3.24196        1.01934
C          1.38409       -2.89563        2.21354
C          1.08684       -4.05452        3.14394
C         -0.32129       -4.48185        2.74812
C         -0.39759       -4.10223        1.28905
O         -1.27078       -4.45473        0.51343
H          2.85952       -0.62432        0.80239
H          2.84530       -0.39099       -0.97169
H          2.93668        0.99664        0.11517
H         -1.84118       -1.84933       -0.16168
H         -2.90457        0.34716        0.05097
H          0.97349        2.21561        0.22609
H         -0.43101        3.57474       -1.23715
H         -1.55252        4.67756       -0.50941
H          0.25408       -3.02705       -1.01707
H          1.83338       -2.47296       -0.49641
H          0.99190       -1.95391        2.61139
H          2.45221       -2.79956        2.00108
H          1.17075       -3.78517        4.20042
H          1.78609       -4.87733        2.94885
H         -1.08043       -3.91864        3.29938
H         -0.47128       -5.55553        2.88306

--Link1--
%chk=JID_7673.chk
%mem=8GB
%nprocshared=4
# B3LYP/6-311++G(d,p) empiricaldispersion=gd3bj scf=xqc pop=npa geom=check

CID_114482050_JID_7673_Energie_neutraal

0 1

--Link1--
%chk=JID_7673.chk
%mem=8GB
%nprocshared=4
# B3LYP/6-311++G(d,p) empiricaldispersion=gd3bj scf=xqc pop=npa geom=check

CID_114482050_JID_7673_Energie_kation

1 2

--Link1--
%chk=JID_7673.chk
%mem=8GB
%nprocshared=4
# B3LYP/6-311++G(d,p) empiricaldispersion=gd3bj scf=xqc pop=npa geom=check

CID_114482050_JID_7673_Energie_anion

-1 2
