%chk=JID_3717.chk
%mem=8GB
%nprocshared=4
# opt freq B3LYP/6-31G(d) empiricaldispersion=gd3bj scf=xqc

CID_148784482_JID_3717_neutraal

0 1
C          0.98260        0.07620        0.06237
C          0.39289       -0.20927       -1.33657
C         -0.12588        1.11338       -1.90870
C         -0.69147        1.16365       -3.31831
N         -1.67261        0.20874       -3.73075
C         -1.69458       -1.12641       -3.90491
O         -2.67269       -1.56008       -4.52907
C         -0.71533       -2.11523       -3.30827
C          0.79884       -1.89394       -3.34426
C          1.40443       -1.00929       -2.20382
C          2.64742       -0.20764       -2.61227
C          1.32155       -1.70576       -4.77258
O          0.30201        1.21604       -4.30535
H          1.32514       -0.84750        0.54063
H          0.22171        0.51788        0.71591
H          1.82433        0.77390        0.02033
H         -0.47714       -0.83714       -1.12623
H         -0.91670        1.46360       -1.23001
H          0.67851        1.85914       -1.84613
H         -1.20829        2.12958       -3.38865
H         -2.48822        0.61229       -4.17531
H         -0.89217       -3.04373       -3.87490
H         -1.05969       -2.36385       -2.29887
H          1.19289       -2.89443       -3.09393
H          1.80578       -1.75889       -1.50154
H          3.08816        0.31405       -1.75788
H          3.42520       -0.87517       -2.99859
H          2.43501        0.53865       -3.37890
H          0.93720       -2.50150       -5.42195
H          1.02458       -0.76281       -5.22358
H          2.41267       -1.77527       -4.81294
H         -0.16613        1.11047       -5.14983

--Link1--
%chk=JID_3717.chk
%mem=8GB
%nprocshared=4
# B3LYP/6-311++G(d,p) empiricaldispersion=gd3bj scf=xqc pop=npa geom=check

CID_148784482_JID_3717_Energie_neutraal

0 1

--Link1--
%chk=JID_3717.chk
%mem=8GB
%nprocshared=4
# B3LYP/6-311++G(d,p) empiricaldispersion=gd3bj scf=xqc pop=npa geom=check

CID_148784482_JID_3717_Energie_kation

1 2

--Link1--
%chk=JID_3717.chk
%mem=8GB
%nprocshared=4
# B3LYP/6-311++G(d,p) empiricaldispersion=gd3bj scf=xqc pop=npa geom=check

CID_148784482_JID_3717_Energie_anion

-1 2
