%chk=JID_4386.chk
%mem=8GB
%nprocshared=4
# opt freq B3LYP/6-31G(d) empiricaldispersion=gd3bj scf=xqc

CID_57752923_JID_4386_neutraal

0 1
C          0.97472       -0.09675        0.00039
C          0.40549        0.26107        1.38094
C         -0.65407        1.36666        1.19450
C         -0.29347       -0.96708        1.98752
N          1.41443        0.81257        2.30525
C          2.62064        0.00147        2.57149
C          3.82845        0.45119        1.69538
N          4.28178        1.82252        1.97142
C          4.66779        1.96789        3.37497
C          3.54584        1.57609        4.33555
C          3.04813        0.14218        4.06190
C          1.95154       -0.25346        5.06812
O          2.20519       -1.54264        5.63977
C          1.75229       -2.61918        4.83390
H          0.17520       -0.40313       -0.68461
H          1.68503       -0.92846        0.05371
H          1.48163        0.76063       -0.45661
H         -1.46584        1.03055        0.53876
H         -1.10387        1.65617        2.15189
H         -0.22003        2.26712        0.74339
H          0.38620       -1.81748        2.09844
H         -0.71662       -0.74057        2.97263
H         -1.12053       -1.30017        1.34922
H          1.69720        1.73684        1.98555
H          2.43182       -1.05597        2.36827
H          4.66640       -0.24148        1.84765
H          3.58081        0.38411        0.63220
H          3.53580        2.48143        1.76173
H          4.95450        3.00968        3.55648
H          5.56069        1.36237        3.57321
H          2.71860        2.29257        4.25521
H          3.92404        1.64631        5.36291
H          3.90483       -0.53002        4.21753
H          1.96343        0.43838        5.91780
H          0.93802       -0.21422        4.65872
H          0.68616       -2.51745        4.61169
H          2.33217       -2.68403        3.91072
H          1.90007       -3.54793        5.39196

--Link1--
%chk=JID_4386.chk
%mem=8GB
%nprocshared=4
# B3LYP/6-311++G(d,p) empiricaldispersion=gd3bj scf=xqc pop=npa geom=check

CID_57752923_JID_4386_Energie_neutraal

0 1

--Link1--
%chk=JID_4386.chk
%mem=8GB
%nprocshared=4
# B3LYP/6-311++G(d,p) empiricaldispersion=gd3bj scf=xqc pop=npa geom=check

CID_57752923_JID_4386_Energie_kation

1 2

--Link1--
%chk=JID_4386.chk
%mem=8GB
%nprocshared=4
# B3LYP/6-311++G(d,p) empiricaldispersion=gd3bj scf=xqc pop=npa geom=check

CID_57752923_JID_4386_Energie_anion

-1 2
