%chk=JID_7292.chk
%mem=8GB
%nprocshared=4
# opt freq B3LYP/6-31G(d) empiricaldispersion=gd3bj scf=xqc

CID_59755651_JID_7292_neutraal

0 1
C          1.04482       -0.07737       -0.04478
C          0.52554       -1.11473       -1.03110
C          1.65443       -1.99530       -1.56475
C          1.09793       -3.04360       -2.55573
C          2.03481       -3.28771       -3.77897
C          2.26063       -4.82208       -3.77611
C          0.93311       -5.46902       -4.22325
C          0.04276       -5.31255       -2.98210
C          0.96075       -4.52091       -1.98978
C          2.35638       -5.17629       -2.27201
C          3.58170       -4.56357       -1.56916
C          2.44284       -6.69333       -1.98629
C          0.43183       -4.63319       -0.56832
O         -0.19001       -2.59975       -3.01092
C         -0.23756       -1.20408       -3.27718
O         -0.11690       -0.41620       -2.09675
C         -1.57880       -0.88784       -3.91561
H          1.52496       -0.55221        0.81616
H          0.22349        0.55122        0.31609
H          1.76618        0.59338       -0.52449
H         -0.23007       -1.72515       -0.52287
H          2.19918       -2.44912       -0.73379
H          2.36877       -1.34691       -2.08949
H          2.99499       -2.77230       -3.67528
H          1.59040       -2.95671       -4.72410
H          3.11329       -5.12787       -4.38728
H          0.50049       -4.97433       -5.09912
H          1.06638       -6.52627       -4.47568
H         -0.89860       -4.80657       -3.21696
H         -0.24037       -6.29369       -2.58439
H          3.48020       -4.63355       -0.48070
H          4.49349       -5.10527       -1.84942
H          3.78010       -3.52110       -1.81773
H          2.43294       -6.88208       -0.90666
H          1.63785       -7.29092       -2.41758
H          3.37741       -7.10404       -2.38666
H         -0.54569       -4.14833       -0.47730
H          0.30318       -5.68054       -0.27462
H          1.10641       -4.17711        0.16117
H          0.56062       -0.91867       -3.97268
H         -1.66584        0.18004       -4.13916
H         -1.72015       -1.46383       -4.83552
H         -2.39879       -1.14839       -3.23667

--Link1--
%chk=JID_7292.chk
%mem=8GB
%nprocshared=4
# B3LYP/6-311++G(d,p) empiricaldispersion=gd3bj scf=xqc pop=npa geom=check

CID_59755651_JID_7292_Energie_neutraal

0 1

--Link1--
%chk=JID_7292.chk
%mem=8GB
%nprocshared=4
# B3LYP/6-311++G(d,p) empiricaldispersion=gd3bj scf=xqc pop=npa geom=check

CID_59755651_JID_7292_Energie_kation

1 2

--Link1--
%chk=JID_7292.chk
%mem=8GB
%nprocshared=4
# B3LYP/6-311++G(d,p) empiricaldispersion=gd3bj scf=xqc pop=npa geom=check

CID_59755651_JID_7292_Energie_anion

-1 2
