%chk=JID_9337.chk
%mem=8GB
%nprocshared=4
# opt freq B3LYP/6-31G(d) empiricaldispersion=gd3bj scf=xqc

CID_63462443_JID_9337_neutraal

0 1
C          2.49600       -0.00700       -0.12600
C          1.04591       -0.20692        0.31171
C          0.23268        1.07539        0.08634
C         -1.25477        0.87894        0.38778
C         -1.87107       -0.30827       -0.37607
C         -1.05027       -1.57492       -0.07580
C          0.42986       -1.40994       -0.41468
C         -1.99082        0.02248       -1.88246
N         -2.65095       -1.04495       -2.63945
C         -2.66181       -0.76792       -4.08341
C         -1.30452       -0.88213       -4.68745
C         -0.47287        0.01107       -5.32616
C          0.72472       -0.69165       -5.60625
C          0.55679       -1.97339       -5.12367
O         -0.68978       -2.09489       -4.58108
C          1.52925       -3.14056       -5.16238
C          2.60654       -3.18380       -6.22816
C          2.99793       -3.00538       -4.79623
C          3.61198       -1.73958       -4.30689
H          2.56241        0.21235       -1.19713
H          2.95490        0.82463        0.41896
H          3.08926       -0.90578        0.07271
H          1.04540       -0.42326        1.38857
H          0.62345        1.87493        0.72783
H          0.35802        1.42385       -0.94579
H         -1.79991        1.80207        0.15756
H         -1.37586        0.70864        1.46550
H         -2.88674       -0.46436        0.01220
H         -1.45516       -2.44532       -0.60202
H         -1.14087       -1.80588        0.99411
H          0.55464       -1.30493       -1.49912
H          0.96536       -2.32376       -0.12930
H         -2.57743        0.94333       -1.99101
H         -0.99754        0.22571       -2.29338
H         -2.13518       -1.91777       -2.51886
H         -3.31965       -1.49987       -4.56603
H         -3.09621        0.21876       -4.28183
H         -0.69641        1.04530       -5.54666
H          1.59783       -0.30022       -6.10640
H          1.07388       -4.07735       -4.85256
H          2.80624       -4.14264       -6.69478
H          2.71607       -2.34841       -6.90907
H          3.43389       -3.85809       -4.28304
H          3.16431       -1.44177       -3.35358
H          4.68377       -1.89018       -4.13922
H          3.51237       -0.91436       -5.01610

--Link1--
%chk=JID_9337.chk
%mem=8GB
%nprocshared=4
# B3LYP/6-311++G(d,p) empiricaldispersion=gd3bj scf=xqc pop=npa geom=check

CID_63462443_JID_9337_Energie_neutraal

0 1

--Link1--
%chk=JID_9337.chk
%mem=8GB
%nprocshared=4
# B3LYP/6-311++G(d,p) empiricaldispersion=gd3bj scf=xqc pop=npa geom=check

CID_63462443_JID_9337_Energie_kation

1 2

--Link1--
%chk=JID_9337.chk
%mem=8GB
%nprocshared=4
# B3LYP/6-311++G(d,p) empiricaldispersion=gd3bj scf=xqc pop=npa geom=check

CID_63462443_JID_9337_Energie_anion

-1 2
