%chk=JID_5575.chk
%mem=8GB
%nprocshared=4
# opt freq B3LYP/6-31G(d) empiricaldispersion=gd3bj scf=xqc

CID_78846565_JID_5575_neutraal

0 1
C          1.07489        0.05170       -0.04146
C          0.62631       -1.28409        0.53218
C          1.13138       -1.52557        1.95170
O          0.44518       -0.67801        2.88749
C          1.10281        0.43321        3.31070
O          2.22400        0.76319        2.94593
C          0.29420        1.19164        4.35728
C         -1.22105        1.13386        4.13613
C         -1.64954        1.91942        2.90135
N         -1.13356        3.28646        2.90916
C          0.29637        3.44019        3.18124
C          0.73201        2.66021        4.41994
C         -1.88117        4.24738        2.22879
O         -2.98975        4.01159        1.74699
C         -1.28859        5.62909        2.11257
H          0.64959        0.89088        0.51577
H          0.74533        0.14340       -1.08137
H          2.16568        0.14043       -0.02342
H         -0.46915       -1.32039        0.51820
H          0.99475       -2.08579       -0.11772
H          0.89523       -2.55515        2.24215
H          2.22056       -1.42228        2.01716
H          0.52773        0.71407        5.31735
H         -1.57615        0.10039        4.05626
H         -1.71797        1.56340        5.01620
H         -1.28958        1.43836        1.98484
H         -2.74397        1.92699        2.84978
H          0.55449        4.49229        3.32496
H          0.83375        3.09869        2.28889
H          0.28194        3.12421        5.30734
H          1.81855        2.74261        4.54016
H         -1.07146        6.03329        3.10475
H         -0.38607        5.60331        1.49671
H         -2.01270        6.29285        1.62977

--Link1--
%chk=JID_5575.chk
%mem=8GB
%nprocshared=4
# B3LYP/6-311++G(d,p) empiricaldispersion=gd3bj scf=xqc pop=npa geom=check

CID_78846565_JID_5575_Energie_neutraal

0 1

--Link1--
%chk=JID_5575.chk
%mem=8GB
%nprocshared=4
# B3LYP/6-311++G(d,p) empiricaldispersion=gd3bj scf=xqc pop=npa geom=check

CID_78846565_JID_5575_Energie_kation

1 2

--Link1--
%chk=JID_5575.chk
%mem=8GB
%nprocshared=4
# B3LYP/6-311++G(d,p) empiricaldispersion=gd3bj scf=xqc pop=npa geom=check

CID_78846565_JID_5575_Energie_anion

-1 2
