%chk=JID_3916.chk
%mem=8GB
%nprocshared=4
# opt freq B3LYP/6-31G(d) empiricaldispersion=gd3bj scf=xqc

CID_92015747_JID_3916_neutraal

0 1
C          0.94046        0.06050       -0.05287
C          0.94084       -1.39609        0.38653
C          1.73345       -1.64358        1.66715
C          1.01230       -1.11277        2.89515
O          0.07293       -1.75943        3.36733
C          1.39710        0.20263        3.52844
C          2.37682        0.97564        3.02809
N          2.80815        2.20720        3.47384
C          3.63992        3.12398        2.69990
C          2.76978        3.91069        1.72371
C          4.36734        4.06236        3.65787
C          0.60108        0.57276        4.75992
C         -0.71680        1.24801        4.40485
H          0.42693        0.69777        0.67280
H          0.41814        0.16250       -1.00967
H          1.96098        0.43250       -0.18645
H         -0.09557       -1.73128        0.51186
H          1.37692       -2.00112       -0.41716
H          1.83414       -2.72681        1.81768
H          2.75915       -1.27816        1.58952
H          2.93967        0.67802        2.14942
H          2.20984        2.65173        4.16699
H          4.39158        2.55729        2.13673
H          1.99463        4.47965        2.24927
H          3.37456        4.61417        1.14213
H          2.26531        3.23962        1.01984
H          4.98991        3.49487        4.35828
H          5.01705        4.75227        3.10940
H          3.66183        4.65625        4.24979
H          0.40835       -0.31721        5.37125
H          1.17822        1.23996        5.41083
H         -1.35646        0.59197        3.80552
H         -1.26380        1.50849        5.31663
H         -0.54866        2.16982        3.83772

--Link1--
%chk=JID_3916.chk
%mem=8GB
%nprocshared=4
# B3LYP/6-311++G(d,p) empiricaldispersion=gd3bj scf=xqc pop=npa geom=check

CID_92015747_JID_3916_Energie_neutraal

0 1

--Link1--
%chk=JID_3916.chk
%mem=8GB
%nprocshared=4
# B3LYP/6-311++G(d,p) empiricaldispersion=gd3bj scf=xqc pop=npa geom=check

CID_92015747_JID_3916_Energie_kation

1 2

--Link1--
%chk=JID_3916.chk
%mem=8GB
%nprocshared=4
# B3LYP/6-311++G(d,p) empiricaldispersion=gd3bj scf=xqc pop=npa geom=check

CID_92015747_JID_3916_Energie_anion

-1 2
