%chk=JID_5666.chk
%mem=8GB
%nprocshared=4
# opt freq B3LYP/6-31G(d) empiricaldispersion=gd3bj scf=xqc

CID_13437853_JID_5666_neutraal

0 1
C          0.91742       -0.05547       -0.01017
C          0.73142       -1.03435       -1.15983
C          1.14516       -2.46698       -0.81450
C          0.36707       -3.11985        0.33232
C         -1.14724       -3.21241        0.12996
C         -1.58772       -4.01005       -1.09801
C         -1.13800       -5.46035       -1.08703
C         -2.15072       -6.11928       -1.99288
C         -3.35619       -5.27058       -1.73750
C         -4.64402       -5.55317       -1.97505
C         -5.22582       -6.75864       -2.59577
O         -6.43141       -6.96453       -2.59412
O         -4.29162       -7.54963       -3.17152
C         -4.82440       -8.71996       -3.79239
O         -3.02819       -4.05856       -1.12958
H          0.24195       -0.27997        0.82048
H          0.70144        0.96375       -0.34637
H          1.94617       -0.07813        0.36288
H         -0.30949       -1.00750       -1.49979
H          1.34136       -0.69520       -2.00598
H          1.05486       -3.08494       -1.71557
H          2.21087       -2.47243       -0.55258
H          0.77158       -4.12640        0.49468
H          0.56134       -2.57177        1.26189
H         -1.59312       -3.66305        1.02688
H         -1.58477       -2.20777        0.08022
H         -1.26061       -3.50881       -2.01783
H         -0.10873       -5.59220       -1.43327
H         -1.21443       -5.88637       -0.07824
H         -2.28282       -7.16987       -1.72177
H         -1.84479       -6.04090       -3.04146
H         -5.39806       -4.82855       -1.68099
H         -5.35001       -9.33991       -3.05910
H         -5.48916       -8.44638       -4.61767
H         -3.98927       -9.29820       -4.19735

--Link1--
%chk=JID_5666.chk
%mem=8GB
%nprocshared=4
# B3LYP/6-311++G(d,p) empiricaldispersion=gd3bj scf=xqc pop=npa geom=check

CID_13437853_JID_5666_Energie_neutraal

0 1

--Link1--
%chk=JID_5666.chk
%mem=8GB
%nprocshared=4
# B3LYP/6-311++G(d,p) empiricaldispersion=gd3bj scf=xqc pop=npa geom=check

CID_13437853_JID_5666_Energie_kation

1 2

--Link1--
%chk=JID_5666.chk
%mem=8GB
%nprocshared=4
# B3LYP/6-311++G(d,p) empiricaldispersion=gd3bj scf=xqc pop=npa geom=check

CID_13437853_JID_5666_Energie_anion

-1 2
