%chk=JID_9651.chk
%mem=8GB
%nprocshared=4
# opt freq B3LYP/6-31G(d) empiricaldispersion=gd3bj scf=xqc

CID_46835403_JID_9651_neutraal

0 1
C          2.13100        0.71500        0.00300
C          2.20162       -0.66135        0.17237
C          1.07371       -1.46630       -0.01557
C         -0.14982       -0.85664       -0.36320
C         -0.21652        0.52595       -0.58591
C          0.93122        1.31850       -0.38043
C         -1.52742        0.82441       -1.02826
C         -2.22521       -0.35745       -1.08312
N         -1.42057       -1.38281       -0.61808
C         -1.86164       -2.72887       -0.44193
C         -1.33881       -3.52511        0.58279
C         -1.78009       -4.83973        0.74446
C         -2.74655       -5.36666       -0.11078
C         -3.29697       -4.57763       -1.12802
C         -2.85299       -3.25498       -1.28513
C         -4.31233       -5.15934       -2.07730
C         -3.67253       -5.92594       -3.20348
O         -3.38840       -7.11320       -3.20104
O         -3.38652       -5.15498       -4.27231
H          3.01763        1.32622        0.15091
H          3.14820       -1.12261        0.44478
H          1.16773       -2.54276        0.08337
H          0.88998        2.39238       -0.53926
H         -1.91500        1.79885       -1.29474
H         -3.25733       -0.53364       -1.35158
H         -0.62582       -3.13235        1.30204
H         -1.37288       -5.45334        1.54452
H         -3.06656       -6.39894        0.02053
H         -3.25554       -2.66401       -2.10553
H         -4.99189       -5.83471       -1.54333
H         -4.95566       -4.37484       -2.49428
H         -2.93225       -5.76575       -4.89011

--Link1--
%chk=JID_9651.chk
%mem=8GB
%nprocshared=4
# B3LYP/6-311++G(d,p) empiricaldispersion=gd3bj scf=xqc pop=npa geom=check

CID_46835403_JID_9651_Energie_neutraal

0 1

--Link1--
%chk=JID_9651.chk
%mem=8GB
%nprocshared=4
# B3LYP/6-311++G(d,p) empiricaldispersion=gd3bj scf=xqc pop=npa geom=check

CID_46835403_JID_9651_Energie_kation

1 2

--Link1--
%chk=JID_9651.chk
%mem=8GB
%nprocshared=4
# B3LYP/6-311++G(d,p) empiricaldispersion=gd3bj scf=xqc pop=npa geom=check

CID_46835403_JID_9651_Energie_anion

-1 2
