%chk=JID_5270.chk
%mem=8GB
%nprocshared=4
# opt freq B3LYP/6-31G(d) empiricaldispersion=gd3bj scf=xqc

CID_62575631_JID_5270_neutraal

0 1
C          0.91656        0.05511        0.00036
C          0.97756       -0.35815       -1.46500
N          1.50415       -1.70652       -1.64386
C          0.85934       -2.47969       -2.71958
C          0.76908       -1.82332       -4.12038
N          2.08125       -1.51129       -4.69140
C          1.99719       -0.64744       -5.86704
C          1.86814        0.77822       -5.44850
C          2.88490        1.62256       -5.04483
O          2.40161        2.85031       -4.73003
C          1.06214        2.81138       -4.93952
C          0.68320        1.56796       -5.38702
C          2.94356       -1.95972       -1.48356
C          3.88489       -0.74777       -1.49536
C          3.14082       -2.75256       -0.18607
H          0.31423       -0.65292        0.58009
H          0.44638        1.04025        0.08914
H          1.90227        0.11909        0.46526
H         -0.05954       -0.31566       -1.82241
H          1.52783        0.38096       -2.05648
H          1.32720       -3.46905       -2.81012
H         -0.16835       -2.69212       -2.39546
H          0.24727       -2.51762       -4.78991
H          0.14365       -0.92784       -4.04518
H          2.64205       -1.05151       -3.97760
H          2.92011       -0.76473       -6.44710
H          1.17535       -0.94623       -6.52836
H          3.95300        1.49949       -4.92822
H          0.52943        3.72860       -4.73075
H         -0.32424        1.26167       -5.63167
H          3.29280       -2.61015       -2.29632
H          3.74412       -0.09456       -0.63094
H          4.92775       -1.08525       -1.47154
H          3.76590       -0.14869       -2.40223
H          2.54727       -3.67383       -0.19304
H          4.19087       -3.04120       -0.06553
H          2.85165       -2.16947        0.69472

--Link1--
%chk=JID_5270.chk
%mem=8GB
%nprocshared=4
# B3LYP/6-311++G(d,p) empiricaldispersion=gd3bj scf=xqc pop=npa geom=check

CID_62575631_JID_5270_Energie_neutraal

0 1

--Link1--
%chk=JID_5270.chk
%mem=8GB
%nprocshared=4
# B3LYP/6-311++G(d,p) empiricaldispersion=gd3bj scf=xqc pop=npa geom=check

CID_62575631_JID_5270_Energie_kation

1 2

--Link1--
%chk=JID_5270.chk
%mem=8GB
%nprocshared=4
# B3LYP/6-311++G(d,p) empiricaldispersion=gd3bj scf=xqc pop=npa geom=check

CID_62575631_JID_5270_Energie_anion

-1 2
