%chk=JID_8875.chk
%mem=8GB
%nprocshared=4
# opt freq B3LYP/6-31G(d) empiricaldispersion=gd3bj scf=xqc

CID_154178973_JID_8875_neutraal

0 1
C          0.94130        0.05580        0.05866
C          0.63595        1.52933        0.28348
C          1.20125        2.44126       -0.80766
C          0.65734        2.19450       -2.21817
C         -0.85450        2.38009       -2.38578
C         -1.40722        3.76135       -1.99951
C         -0.75961        4.96843       -2.72713
C         -0.84608        4.82534       -4.25375
N         -1.26313        6.30604       -2.29478
C         -0.77358        6.64954       -0.94524
C         -1.33700        7.98603       -0.47440
C         -2.86166        7.95994       -0.44483
C         -3.43256        6.76898       -1.21381
N         -2.72005        6.41027       -2.44441
C         -3.07898        7.23207       -3.61685
C         -2.54667        8.67201       -3.69760
O         -2.85469        9.26669       -4.96738
C         -1.86069        8.99490       -5.94831
H          0.42300       -0.33020       -0.82396
H          0.60914       -0.53180        0.92059
H          2.01578       -0.10867       -0.06946
H         -0.44601        1.67010        0.37922
H          1.07349        1.83076        1.24302
H          1.02168        3.48418       -0.52179
H          2.29177        2.32126       -0.83547
H          1.18490        2.85948       -2.91170
H          0.91898        1.17867       -2.53740
H         -1.11705        2.16513       -3.42866
H         -1.37966        1.62135       -1.79285
H         -2.48599        3.74688       -2.20132
H         -1.30677        3.87483       -0.91511
H          0.31437        4.96395       -2.50049
H         -1.86918        4.62378       -4.58676
H         -0.48563        5.73031       -4.75573
H         -0.21706        4.00177       -4.60679
H          0.31996        6.72906       -0.97022
H         -1.02068        5.88043       -0.20447
H         -0.99343        8.78815       -1.13866
H         -0.94935        8.22896        0.52177
H         -3.20278        7.89649        0.59607
H         -3.25621        8.90618       -0.82801
H         -3.41596        5.89141       -0.55298
H         -4.49744        6.93738       -1.41743
H         -2.77578        6.69779       -4.52262
H         -4.17325        7.26403       -3.71002
H         -3.04546        9.29276       -2.95006
H         -1.46840        8.72974       -3.51501
H         -0.90217        9.43000       -5.64884
H         -1.74942        7.91995       -6.11331
H         -2.17149        9.45919       -6.88813

--Link1--
%chk=JID_8875.chk
%mem=8GB
%nprocshared=4
# B3LYP/6-311++G(d,p) empiricaldispersion=gd3bj scf=xqc pop=npa geom=check

CID_154178973_JID_8875_Energie_neutraal

0 1

--Link1--
%chk=JID_8875.chk
%mem=8GB
%nprocshared=4
# B3LYP/6-311++G(d,p) empiricaldispersion=gd3bj scf=xqc pop=npa geom=check

CID_154178973_JID_8875_Energie_kation

1 2

--Link1--
%chk=JID_8875.chk
%mem=8GB
%nprocshared=4
# B3LYP/6-311++G(d,p) empiricaldispersion=gd3bj scf=xqc pop=npa geom=check

CID_154178973_JID_8875_Energie_anion

-1 2
