%chk=JID_9810.chk
%mem=8GB
%nprocshared=4
# opt freq B3LYP/6-31G(d) empiricaldispersion=gd3bj scf=xqc

CID_89557567_JID_9810_neutraal

0 1
C          1.07007       -0.06201       -0.03528
N          0.90659        1.27146        0.56729
C          0.15832        1.40027        1.74489
C         -0.02669        2.58777        2.33814
C          0.57716        3.78782        1.75991
O          0.42978        4.88899        2.27535
N          1.32268        3.58650        0.63791
C          1.54422        2.38650        0.00891
S          2.54823        2.41632       -1.33442
C         -0.46467        0.23000        2.40638
C          0.30758       -0.72042        3.10066
C         -0.28592       -1.83193        3.70900
C         -1.67019       -1.98521        3.68610
C         -2.45938       -1.04039        3.03501
C         -1.86026        0.04215        2.38208
O         -2.70033        0.95220        1.78801
C         -2.86809        0.65386        0.40098
O          1.67794       -0.65599        3.14725
C          2.11748        0.22323        4.18352
H          1.21850        0.00484       -1.11587
H          0.18024       -0.68034        0.11091
H          1.94599       -0.54364        0.40924
H         -0.60543        2.72564        3.24304
H          1.76293        4.40636        0.24599
H          0.33430       -2.57144        4.20919
H         -2.13290       -2.83729        4.17754
H         -3.54117       -1.14651        3.02910
H         -2.02821        1.04862       -0.17840
H         -2.98389       -0.42003        0.21481
H         -3.77827        1.15594        0.05954
H          2.28993        1.22232        3.77307
H          1.41799        0.27871        5.02590
H          3.07256       -0.15507        4.56014

--Link1--
%chk=JID_9810.chk
%mem=8GB
%nprocshared=4
# B3LYP/6-311++G(d,p) empiricaldispersion=gd3bj scf=xqc pop=npa geom=check

CID_89557567_JID_9810_Energie_neutraal

0 1

--Link1--
%chk=JID_9810.chk
%mem=8GB
%nprocshared=4
# B3LYP/6-311++G(d,p) empiricaldispersion=gd3bj scf=xqc pop=npa geom=check

CID_89557567_JID_9810_Energie_kation

1 2

--Link1--
%chk=JID_9810.chk
%mem=8GB
%nprocshared=4
# B3LYP/6-311++G(d,p) empiricaldispersion=gd3bj scf=xqc pop=npa geom=check

CID_89557567_JID_9810_Energie_anion

-1 2
