%chk=JID_6757.chk
%mem=8GB
%nprocshared=4
# opt freq B3LYP/6-31G(d) empiricaldispersion=gd3bj scf=xqc

CID_114735247_JID_6757_neutraal

0 1
C          1.06642       -0.04676       -0.05833
C          0.31307       -0.46927        1.16325
C          0.13810       -1.80222        1.55274
C         -0.56334       -2.20722        2.67655
C         -1.14942       -1.23090        3.49921
C         -0.99688        0.11653        3.15063
C         -0.28183        0.48661        2.00768
C         -0.49768       -3.62418        2.67637
C          0.25672       -4.02914        1.57949
O          0.61685       -2.88945        0.89103
C          0.59777       -5.33692        1.09647
C          1.02996       -6.30474        1.93473
C          1.31654       -6.25426        3.41575
C          0.29073       -7.01858        4.26583
N          0.28136       -8.45592        3.99286
C          0.51577       -5.64708       -0.38435
H          0.40355        0.49497       -0.74051
H          1.47579       -0.90710       -0.59675
H          1.90060        0.60505        0.22019
H         -1.70898       -1.51030        4.38642
H         -1.44307        0.88574        3.77736
H         -0.18669        1.54470        1.76761
H         -0.96119       -4.28331        3.39477
H          1.28293       -7.27218        1.49891
H          2.31431       -6.68216        3.58045
H          1.38508       -5.22390        3.77806
H          0.53284       -6.87182        5.32417
H         -0.71539       -6.61669        4.10358
H         -0.41008       -8.90528        4.59226
H         -0.03443       -8.61441        3.03658
H         -0.50312       -5.47474       -0.74745
H          1.19733       -4.99846       -0.94504
H          0.77852       -6.68488       -0.61487

--Link1--
%chk=JID_6757.chk
%mem=8GB
%nprocshared=4
# B3LYP/6-311++G(d,p) empiricaldispersion=gd3bj scf=xqc pop=npa geom=check

CID_114735247_JID_6757_Energie_neutraal

0 1

--Link1--
%chk=JID_6757.chk
%mem=8GB
%nprocshared=4
# B3LYP/6-311++G(d,p) empiricaldispersion=gd3bj scf=xqc pop=npa geom=check

CID_114735247_JID_6757_Energie_kation

1 2

--Link1--
%chk=JID_6757.chk
%mem=8GB
%nprocshared=4
# B3LYP/6-311++G(d,p) empiricaldispersion=gd3bj scf=xqc pop=npa geom=check

CID_114735247_JID_6757_Energie_anion

-1 2
