%chk=JID_7223.chk
%mem=8GB
%nprocshared=4
# opt freq B3LYP/6-31G(d) empiricaldispersion=gd3bj scf=xqc

CID_83893790_JID_7223_neutraal

0 1
C          1.00643       -0.02678        0.09613
C          0.60526       -0.36402       -1.30957
C          0.59114       -1.67147       -1.83404
C          0.20970       -1.81238       -3.20908
C          0.13550       -3.02828       -3.94059
C         -0.24893       -3.07786       -5.28363
C         -0.57421       -1.90839       -5.94457
C         -0.51055       -0.70223       -5.25343
C         -0.12822       -0.63824       -3.91773
N         -0.10071        0.56701       -3.34671
N          0.26685        0.71224       -2.04896
C          0.96535       -2.84624       -0.90882
C         -0.29256       -3.60900       -0.39997
N         -0.89724       -4.55935       -1.32781
C          2.17233       -3.72600       -1.36844
C          3.41872       -2.86377       -1.62360
C          2.52740       -4.80091       -0.33095
H          0.35964       -0.53735        0.81626
H          0.91152        1.04910        0.28122
H          2.05222       -0.29599        0.27316
H          0.36759       -3.97988       -3.47666
H         -0.29138       -4.03267       -5.80209
H         -0.87525       -1.92702       -6.98823
H         -0.76617        0.22046       -5.77043
H          1.34969       -2.40211        0.01727
H         -0.02180       -4.16348        0.50631
H         -1.06056       -2.88983       -0.08840
H         -1.60920       -5.09883       -0.83395
H         -1.41322       -4.03873       -2.03942
H          1.95069       -4.25473       -2.29621
H          3.70538       -2.30620       -0.72516
H          4.26996       -3.48832       -1.91563
H          3.25254       -2.14610       -2.43265
H          1.72404       -5.53666       -0.22914
H          3.42686       -5.34959       -0.63137
H          2.71666       -4.35836        0.65281

--Link1--
%chk=JID_7223.chk
%mem=8GB
%nprocshared=4
# B3LYP/6-311++G(d,p) empiricaldispersion=gd3bj scf=xqc pop=npa geom=check

CID_83893790_JID_7223_Energie_neutraal

0 1

--Link1--
%chk=JID_7223.chk
%mem=8GB
%nprocshared=4
# B3LYP/6-311++G(d,p) empiricaldispersion=gd3bj scf=xqc pop=npa geom=check

CID_83893790_JID_7223_Energie_kation

1 2

--Link1--
%chk=JID_7223.chk
%mem=8GB
%nprocshared=4
# B3LYP/6-311++G(d,p) empiricaldispersion=gd3bj scf=xqc pop=npa geom=check

CID_83893790_JID_7223_Energie_anion

-1 2
