%chk=JID_7309.chk
%mem=8GB
%nprocshared=4
# opt freq B3LYP/6-31G(d) empiricaldispersion=gd3bj scf=xqc

CID_89017297_JID_7309_neutraal

0 1
C         -1.12200       -2.72400       -0.01300
C         -1.24075       -1.22344        0.03471
C         -0.44760       -0.54313        0.97425
C         -0.50469        0.83826        1.07797
C         -1.35628        1.57538        0.26687
C         -2.17900        0.92534       -0.67018
C         -2.13193       -0.48642       -0.78096
S         -3.15114       -1.31655       -2.01129
C         -4.45134       -2.00451       -0.92899
C         -5.30098       -3.05107       -1.65850
C         -4.55694       -4.31899       -2.10586
C         -4.10306       -5.19868       -0.93553
C         -3.32377       -6.44250       -1.37936
C         -1.95466       -6.12055       -1.91050
C         -0.81226       -6.48255       -1.31238
C         -3.07931        1.77143       -1.53365
O          0.30476        1.43997        1.99507
H         -1.22131       -3.11340       -1.02938
H         -0.13433       -3.04604        0.33687
H         -1.87299       -3.18001        0.63719
H          0.23118       -1.09149        1.62362
H         -1.38817        2.65783        0.35209
H         -4.01464       -2.43524       -0.02497
H         -5.09441       -1.17613       -0.61246
H         -6.12903       -3.34349       -1.00046
H         -5.76426       -2.58830       -2.53947
H         -5.23643       -4.90705       -2.73585
H         -3.70809       -4.05242       -2.74248
H         -3.49209       -4.62422       -0.23333
H         -4.99114       -5.52705       -0.38125
H         -3.23928       -7.12146       -0.52151
H         -3.88539       -6.98380       -2.14971
H         -1.90049       -5.56915       -2.84711
H          0.14782       -6.22427       -1.74932
H         -0.80481       -7.03918       -0.38063
H         -2.98596        2.83534       -1.28912
H         -2.81467        1.65855       -2.58983
H         -4.12777        1.49708       -1.37986
H          0.19105        2.40194        1.92676

--Link1--
%chk=JID_7309.chk
%mem=8GB
%nprocshared=4
# B3LYP/6-311++G(d,p) empiricaldispersion=gd3bj scf=xqc pop=npa geom=check

CID_89017297_JID_7309_Energie_neutraal

0 1

--Link1--
%chk=JID_7309.chk
%mem=8GB
%nprocshared=4
# B3LYP/6-311++G(d,p) empiricaldispersion=gd3bj scf=xqc pop=npa geom=check

CID_89017297_JID_7309_Energie_kation

1 2

--Link1--
%chk=JID_7309.chk
%mem=8GB
%nprocshared=4
# B3LYP/6-311++G(d,p) empiricaldispersion=gd3bj scf=xqc pop=npa geom=check

CID_89017297_JID_7309_Energie_anion

-1 2
