%chk=JID_5621.chk
%mem=8GB
%nprocshared=4
# opt freq B3LYP/6-31G(d) empiricaldispersion=gd3bj scf=xqc

CID_106659418_JID_5621_neutraal

0 1
C          1.04975        0.08155        0.02957
C          0.50235        1.17621       -0.87329
C          0.78627        0.94820       -2.36302
C          0.21808       -0.35547       -2.94640
C         -1.28960       -0.47557       -2.94349
N         -1.97628        0.68969       -2.95100
N         -3.33743        0.69165       -2.95991
C         -4.01770       -0.46768       -2.99304
C         -3.36386       -1.71086       -3.00268
C         -4.05987       -2.94394       -3.01573
C         -3.38503       -4.16317       -3.04838
C         -1.99905       -4.17816       -3.06982
C         -1.29093       -2.97499       -3.04409
C         -1.95094       -1.72041       -2.99679
N         -5.41898       -0.36581       -3.01951
H          0.52344       -0.86524       -0.12303
H          0.92203        0.36322        1.07980
H          2.11722       -0.08007       -0.15007
H         -0.57350        1.28271       -0.69792
H          0.95912        2.12940       -0.58035
H          0.40659        1.80760       -2.92956
H          1.87365        0.94265       -2.51256
H          0.55104       -0.44324       -3.98814
H          0.66880       -1.18817       -2.39829
H         -5.14783       -2.95801       -2.98688
H         -3.94364       -5.09553       -3.05535
H         -1.46406       -5.12416       -3.09968
H         -0.20561       -3.03610       -3.06253
H         -5.79164       -0.84135       -3.83399
H         -5.64072        0.62753       -3.04108

--Link1--
%chk=JID_5621.chk
%mem=8GB
%nprocshared=4
# B3LYP/6-311++G(d,p) empiricaldispersion=gd3bj scf=xqc pop=npa geom=check

CID_106659418_JID_5621_Energie_neutraal

0 1

--Link1--
%chk=JID_5621.chk
%mem=8GB
%nprocshared=4
# B3LYP/6-311++G(d,p) empiricaldispersion=gd3bj scf=xqc pop=npa geom=check

CID_106659418_JID_5621_Energie_kation

1 2

--Link1--
%chk=JID_5621.chk
%mem=8GB
%nprocshared=4
# B3LYP/6-311++G(d,p) empiricaldispersion=gd3bj scf=xqc pop=npa geom=check

CID_106659418_JID_5621_Energie_anion

-1 2
