%chk=JID_8250.chk
%mem=8GB
%nprocshared=4
# opt freq B3LYP/6-31G(d) empiricaldispersion=gd3bj scf=xqc

CID_65865045_JID_8250_neutraal

0 1
C          1.06898       -0.05271        0.04963
C          0.57792       -1.43657       -0.34497
C          1.12384       -2.55489        0.55041
C          0.73223       -2.47287        2.04604
C         -0.79527       -2.45741        2.29879
C         -1.53673       -3.67015        1.82708
C         -2.08718       -3.93797        0.58834
C         -2.67197       -5.21645        0.69618
N         -2.51418       -5.72140        1.92250
N         -1.86067       -4.75887        2.60172
C         -1.58458       -4.99183        4.00000
C         -3.39453       -5.98491       -0.35640
C         -2.45048       -6.78838       -1.23721
C          1.41610       -3.58296        2.87988
N          2.87016       -3.41050        2.92224
C          3.53208       -4.27409        3.90732
C          3.48744       -5.75329        3.52109
C          4.98575       -3.81198        4.02928
H          0.66969        0.25287        1.02104
H          0.74146        0.68614       -0.68890
H          2.16200       -0.02116        0.09756
H         -0.51576       -1.44323       -0.36016
H          0.89976       -1.63657       -1.37441
H          0.80537       -3.52024        0.13885
H          2.21616       -2.53906        0.45635
H          1.10925       -1.51625        2.43401
H         -0.97741       -2.29471        3.36737
H         -1.23191       -1.57659        1.81123
H         -2.06606       -3.29966       -0.28326
H         -2.39350       -5.59238        4.42571
H         -0.63836       -5.53258        4.07445
H         -1.53082       -4.04281        4.53449
H         -4.12167       -6.66229        0.10772
H         -3.96934       -5.29124       -0.98185
H         -1.88010       -7.51359       -0.64702
H         -3.01537       -7.33666       -1.99773
H         -1.73526       -6.13587       -1.74960
H          1.02610       -3.53685        3.90352
H          1.16608       -4.56475        2.46367
H          3.26602       -3.58448        1.99876
H          3.06057       -4.14324        4.88908
H          3.91458       -5.92129        2.52620
H          4.05945       -6.35493        4.23607
H          2.46263       -6.13781        3.52140
H          5.03939       -2.75868        4.32730
H          5.51491       -4.39680        4.78957
H          5.52642       -3.92414        3.08248

--Link1--
%chk=JID_8250.chk
%mem=8GB
%nprocshared=4
# B3LYP/6-311++G(d,p) empiricaldispersion=gd3bj scf=xqc pop=npa geom=check

CID_65865045_JID_8250_Energie_neutraal

0 1

--Link1--
%chk=JID_8250.chk
%mem=8GB
%nprocshared=4
# B3LYP/6-311++G(d,p) empiricaldispersion=gd3bj scf=xqc pop=npa geom=check

CID_65865045_JID_8250_Energie_kation

1 2

--Link1--
%chk=JID_8250.chk
%mem=8GB
%nprocshared=4
# B3LYP/6-311++G(d,p) empiricaldispersion=gd3bj scf=xqc pop=npa geom=check

CID_65865045_JID_8250_Energie_anion

-1 2
