%chk=JID_10598.chk
%mem=8GB
%nprocshared=4
# opt freq B3LYP/6-31G(d) empiricaldispersion=gd3bj scf=xqc

CID_57198965_JID_10598_neutraal

0 1
C          1.34400       -0.22500        0.03600
C          0.76720        1.04038       -0.06611
C         -0.62557        1.17843       -0.10970
C         -1.43995        0.04016       -0.08510
C         -0.86315       -1.23257        0.01322
C          0.53063       -1.35776        0.08257
S         -1.90533       -2.71399        0.08566
O         -3.28041       -2.26665       -0.30572
O         -1.27927       -3.33272       -1.25471
C         -1.19298        2.54588       -0.22895
O         -0.56259        3.40228       -0.84358
C         -2.49287        2.91229        0.38706
C         -3.30214        3.84692       -0.27090
C         -4.52396        4.23781        0.28761
C         -4.91678        3.70428        1.52238
C         -4.10316        2.78596        2.18850
C         -2.88811        2.39402        1.62616
S         -5.56168        5.46713       -0.54829
O         -5.15412        5.43655       -1.98930
O         -6.87765        4.55206       -0.48282
H          2.42605       -0.32747        0.07104
H          1.40505        1.92165       -0.11410
H         -2.52100        0.13176       -0.16251
H          0.99029       -2.34141        0.15471
H         -2.00706       -3.32800       -1.92045
H         -2.97561        4.26917       -1.22057
H         -5.86098        4.00439        1.97263
H         -4.41397        2.38369        3.15000
H         -2.25453        1.70141        2.17428
H         -7.08487        4.32123       -1.41929

--Link1--
%chk=JID_10598.chk
%mem=8GB
%nprocshared=4
# B3LYP/6-311++G(d,p) empiricaldispersion=gd3bj scf=xqc pop=npa geom=check

CID_57198965_JID_10598_Energie_neutraal

0 1

--Link1--
%chk=JID_10598.chk
%mem=8GB
%nprocshared=4
# B3LYP/6-311++G(d,p) empiricaldispersion=gd3bj scf=xqc pop=npa geom=check

CID_57198965_JID_10598_Energie_kation

1 2

--Link1--
%chk=JID_10598.chk
%mem=8GB
%nprocshared=4
# B3LYP/6-311++G(d,p) empiricaldispersion=gd3bj scf=xqc pop=npa geom=check

CID_57198965_JID_10598_Energie_anion

-1 2
