%chk=JID_5788.chk
%mem=8GB
%nprocshared=4
# opt freq B3LYP/6-31G(d) empiricaldispersion=gd3bj scf=xqc

CID_119892441_JID_5788_neutraal

0 1
C          1.08211        0.03485       -0.04521
C          0.40605        1.36431        0.27900
C          1.11318        2.62099       -0.30271
C          1.00847        2.59979       -1.84719
C          0.47047        3.92927        0.20078
N          1.14663        4.94958        0.70228
C          0.29138        5.97666        1.04317
C         -1.04226        5.74095        0.80290
S         -1.24054        4.18512        0.12011
N          2.55923        2.64859        0.02567
C          3.21921        2.71261        1.21615
O          4.43651        2.90263        1.18068
C          2.47443        2.48506        2.51424
C          3.24919        2.97072        3.73968
N          3.35438        4.43018        3.81044
H          1.10752       -0.15241       -1.12225
H          0.52398       -0.78616        0.41719
H          2.10516       -0.00446        0.33935
H         -0.62294        1.30816       -0.09982
H          0.30551        1.44092        1.36646
H         -0.02918        2.50301       -2.18564
H          1.41125        3.52285       -2.28316
H          1.58070        1.77136       -2.27914
H          0.69855        6.88689        1.46724
H         -1.88400        6.39281        0.98716
H          3.17871        2.93276       -0.72347
H          1.49770        2.97212        2.49944
H          2.31447        1.40518        2.61013
H          2.72806        2.62906        4.64082
H          4.25440        2.53626        3.76974
H          2.46082        4.85202        3.55583
H          4.00084        4.73142        3.07484

--Link1--
%chk=JID_5788.chk
%mem=8GB
%nprocshared=4
# B3LYP/6-311++G(d,p) empiricaldispersion=gd3bj scf=xqc pop=npa geom=check

CID_119892441_JID_5788_Energie_neutraal

0 1

--Link1--
%chk=JID_5788.chk
%mem=8GB
%nprocshared=4
# B3LYP/6-311++G(d,p) empiricaldispersion=gd3bj scf=xqc pop=npa geom=check

CID_119892441_JID_5788_Energie_kation

1 2

--Link1--
%chk=JID_5788.chk
%mem=8GB
%nprocshared=4
# B3LYP/6-311++G(d,p) empiricaldispersion=gd3bj scf=xqc pop=npa geom=check

CID_119892441_JID_5788_Energie_anion

-1 2
