%chk=JID_2039.chk
%mem=8GB
%nprocshared=4
# opt freq B3LYP/6-31G(d) empiricaldispersion=gd3bj scf=xqc

CID_58239496_JID_2039_neutraal

0 1
C          1.05902       -0.07299        0.03449
C          0.97878       -0.48853       -1.43568
C          1.51826       -1.89804       -1.65640
C          0.29868       -2.76342       -1.96843
O         -0.80972       -1.87242       -2.14086
C         -0.46764       -0.58965       -1.85076
O         -1.25482        0.34276       -1.91334
C         -0.03282       -3.66968       -0.77387
C          0.44020       -3.63316       -3.23702
C          0.43799       -2.87296       -4.56340
O          1.64963       -2.15662       -4.73768
C          1.69896        0.53108       -2.31931
H          0.50713       -0.76687        0.67822
H          0.62452        0.92137        0.18929
H          2.09806       -0.04376        0.38031
H          2.25771       -1.92350       -2.46129
H          2.06388       -2.27028       -0.77981
H         -0.96420       -4.22083       -0.94865
H          0.76742       -4.39249       -0.58393
H         -0.19458       -3.08190        0.13638
H          1.35103       -4.23961       -3.15887
H         -0.41161       -4.32477       -3.27859
H          0.35404       -3.58710       -5.38939
H         -0.40174       -2.17510       -4.63221
H          1.59710       -1.71767       -5.60529
H          1.30001        1.54042       -2.16602
H          2.77192        0.55581       -2.10052
H          1.57341        0.29755       -3.38250

--Link1--
%chk=JID_2039.chk
%mem=8GB
%nprocshared=4
# B3LYP/6-311++G(d,p) empiricaldispersion=gd3bj scf=xqc pop=npa geom=check

CID_58239496_JID_2039_Energie_neutraal

0 1

--Link1--
%chk=JID_2039.chk
%mem=8GB
%nprocshared=4
# B3LYP/6-311++G(d,p) empiricaldispersion=gd3bj scf=xqc pop=npa geom=check

CID_58239496_JID_2039_Energie_kation

1 2

--Link1--
%chk=JID_2039.chk
%mem=8GB
%nprocshared=4
# B3LYP/6-311++G(d,p) empiricaldispersion=gd3bj scf=xqc pop=npa geom=check

CID_58239496_JID_2039_Energie_anion

-1 2
