%chk=JID_6822.chk
%mem=8GB
%nprocshared=4
# opt freq B3LYP/6-31G(d) empiricaldispersion=gd3bj scf=xqc

CID_64632269_JID_6822_neutraal

0 1
C          2.26000        1.82000        0.03500
C          1.10367        0.86835       -0.01693
C         -0.05510        1.19363       -0.71795
C         -1.18301        0.34348       -0.73993
C         -1.15361       -0.88684       -0.02715
C          0.04718       -1.21653        0.67794
C          1.14366       -0.33457        0.67845
C          0.22928       -2.51865        1.42379
C         -2.33254       -1.86835        0.06493
C         -3.19798       -1.70408        1.34708
S         -4.37901       -0.29865        1.38675
C         -3.64660        0.91213        2.57164
C         -2.46336        0.45749        3.41524
C         -3.31226        2.20373        1.82777
N         -3.15102       -2.00500       -1.14615
C         -2.33892        0.82678       -1.57913
H          2.31337        2.42293       -0.87765
H          2.15545        2.48931        0.89449
H          3.20822        1.27883        0.12071
H         -0.08536        2.13754       -1.26174
H          2.04690       -0.59513        1.22828
H         -0.54905       -2.65476        2.17817
H          0.22242       -3.35956        0.72316
H          1.18756       -2.54973        1.95430
H         -1.88995       -2.86774        0.14222
H         -3.83847       -2.59302        1.41835
H         -2.58260       -1.73619        2.24503
H         -4.46470        1.14445        3.26397
H         -1.58137        0.24382        2.80535
H         -2.17708        1.24683        4.12019
H         -2.71324       -0.42375        4.01448
H         -4.17147        2.57913        1.26091
H         -3.02850        2.98892        2.53794
H         -2.47324        2.07286        1.14045
H         -3.84223       -1.25749       -1.16336
H         -2.55603       -1.90978       -1.96551
H         -2.21397        1.87771       -1.86562
H         -2.40398        0.25173       -2.50717
H         -3.28257        0.78335       -1.03712

--Link1--
%chk=JID_6822.chk
%mem=8GB
%nprocshared=4
# B3LYP/6-311++G(d,p) empiricaldispersion=gd3bj scf=xqc pop=npa geom=check

CID_64632269_JID_6822_Energie_neutraal

0 1

--Link1--
%chk=JID_6822.chk
%mem=8GB
%nprocshared=4
# B3LYP/6-311++G(d,p) empiricaldispersion=gd3bj scf=xqc pop=npa geom=check

CID_64632269_JID_6822_Energie_kation

1 2

--Link1--
%chk=JID_6822.chk
%mem=8GB
%nprocshared=4
# B3LYP/6-311++G(d,p) empiricaldispersion=gd3bj scf=xqc pop=npa geom=check

CID_64632269_JID_6822_Energie_anion

-1 2
