%chk=JID_2464.chk
%mem=8GB
%nprocshared=4
# opt freq B3LYP/6-31G(d) empiricaldispersion=gd3bj scf=xqc

CID_126762835_JID_2464_neutraal

0 1
C          1.03287        0.08651        0.03789
C          0.39366       -0.98467        0.90983
C          1.13390       -1.17565        2.23606
C          0.40791       -0.50639        3.39852
C          1.20513       -0.47800        4.73507
C          0.96482        1.05443        4.66578
O          1.02220        1.98656        5.43436
N          0.50350        0.96851        3.38344
C         -0.53008        1.85528        2.93254
O         -1.77475        1.39732        3.44501
C         -2.86014        2.12025        2.88255
O          0.60763       -1.16375        5.86336
H          1.11835        1.04437        0.55548
H          0.43951        0.23909       -0.86913
H          2.03926       -0.21807       -0.26854
H         -0.66326       -0.74683        1.07447
H          0.42320       -1.92703        0.34953
H          1.18008       -2.25144        2.44767
H          2.17247       -0.83095        2.15995
H         -0.62035       -0.87260        3.51995
H          2.26661       -0.73676        4.65011
H         -0.32880        2.87043        3.29147
H         -0.54310        1.84379        1.83985
H         -2.74535        3.19252        3.06412
H         -2.92795        1.92238        1.80876
H         -3.78251        1.77842        3.35828
H         -0.11934       -0.58021        6.15055

--Link1--
%chk=JID_2464.chk
%mem=8GB
%nprocshared=4
# B3LYP/6-311++G(d,p) empiricaldispersion=gd3bj scf=xqc pop=npa geom=check

CID_126762835_JID_2464_Energie_neutraal

0 1

--Link1--
%chk=JID_2464.chk
%mem=8GB
%nprocshared=4
# B3LYP/6-311++G(d,p) empiricaldispersion=gd3bj scf=xqc pop=npa geom=check

CID_126762835_JID_2464_Energie_kation

1 2

--Link1--
%chk=JID_2464.chk
%mem=8GB
%nprocshared=4
# B3LYP/6-311++G(d,p) empiricaldispersion=gd3bj scf=xqc pop=npa geom=check

CID_126762835_JID_2464_Energie_anion

-1 2
