%chk=JID_9405.chk
%mem=8GB
%nprocshared=4
# opt=(cartesian,calcfc) freq B3LYP/6-31G(d) empiricaldispersion=gd3bj scf=xqc

CID_80009261_JID_9405_neutraal

0 1
6	-4.907753	 0.503713	 -0.549958
6	-3.584178	 0.915662	 0.121269
6	-3.547262	 2.467307	 0.134683
6	-3.588210	 0.414969	 1.583292
6	-2.372573	 0.380019	 -0.722650
6	-2.327741	 -1.150873	 -0.933408
6	-1.554943	 -1.931044	 0.127904
7	-0.220408	 -1.345260	 0.326126
6	-0.257317	 0.022973	 0.734596
6	-0.967118	 0.888561	 -0.325128
6	0.841140	 -2.041345	 -0.224892
8	0.735108	 -3.159412	 -0.694397
6	2.227526	 -1.395555	 -0.179941
6	2.871880	 -1.239580	 1.209775
6	3.711038	 0.072823	 1.070766
6	3.451519	 0.524759	 -0.379829
8	2.234028	 -0.087776	 -0.766804
6	3.311262	 2.027732	 -0.579732
7	4.588996	 2.717906	 -0.317135
1	-5.744335	 0.963265	 -0.041738
1	-5.058301	 -0.570711	 -0.534964
1	-4.926530	 0.833694	 -1.598708
1	-4.464869	 2.856623	 0.590857
1	-2.697901	 2.853589	 0.750229
1	-3.458205	 2.873610	 -0.858328
1	-3.705127	 -0.661507	 1.643973
1	-2.724255	 0.708695	 2.130351
1	-4.480693	 0.850740	 2.113015
1	-2.566865	 0.820414	 -1.724403
1	-3.315508	 -1.565237	 -1.050927
1	-1.802296	 -1.345314	 -1.890835
1	-2.090442	 -1.880451	 1.116778
1	-1.447017	 -2.959119	 -0.138034
1	0.765932	 0.418751	 0.870945
1	-0.768483	 0.081569	 1.704261
1	-0.320157	 0.863290	 -1.214793
1	-0.997978	 1.931414	 0.015921
1	2.858495	 -2.064455	 -0.803969
1	2.101958	 -1.134991	 1.982292
1	3.475168	 -2.099318	 1.465067
1	3.345683	 0.833087	 1.783874
1	4.757262	 -0.091807	 1.276923
1	4.271779	 0.159701	 -1.022415
1	3.040481	 2.210167	 -1.622203
1	2.466668	 2.378734	 0.044194
1	4.533238	 3.650906	 -0.577166
1	4.775479	 2.692927	 0.695989

--Link1--
%chk=JID_9405.chk
%mem=8GB
%nprocshared=4
# B3LYP/6-311++G(d,p) empiricaldispersion=gd3bj scf=xqc pop=npa geom=check

CID_80009261_JID_9405_Energie_neutraal

0 1

--Link1--
%chk=JID_9405.chk
%mem=8GB
%nprocshared=4
# B3LYP/6-311++G(d,p) empiricaldispersion=gd3bj scf=xqc pop=npa geom=check

CID_80009261_JID_9405_Energie_kation

1 2

--Link1--
%chk=JID_9405.chk
%mem=8GB
%nprocshared=4
# B3LYP/6-311++G(d,p) empiricaldispersion=gd3bj scf=xqc pop=npa geom=check

CID_80009261_JID_9405_Energie_anion

-1 2
