%chk=JID_8898.chk
%mem=8GB
%nprocshared=4
# opt freq B3LYP/6-31G(d) empiricaldispersion=gd3bj scf=xqc

CID_113385988_JID_8898_neutraal

0 1
C          0.93841        0.06836       -0.03915
C          0.29890        0.59222       -1.31532
C          0.39019       -0.38268       -2.43883
N         -0.48343       -1.38917       -2.53507
S         -0.06302       -2.24640       -3.90665
C          1.24479       -1.20102       -4.28644
N          1.38755       -0.24102       -3.39722
S          2.27104       -1.42287       -5.68326
C          2.97209        0.22721       -5.79296
C          2.26999        1.14645       -6.59245
C          2.74377        2.44089       -6.77509
C          3.93108        2.82916       -6.16600
C          4.65150        1.93126       -5.36270
C          4.18203        0.60953       -5.16246
C          4.97446       -0.37381       -4.32788
N          5.99799       -1.04696       -5.12287
S          6.18704        2.54611       -4.65837
C          5.49838        3.39528       -3.21356
H          0.44354       -0.84568        0.30622
H          0.86570        0.81595        0.75697
H          1.99779       -0.16240       -0.19516
H         -0.75248        0.83753       -1.12363
H          0.79138        1.52751       -1.60683
H          1.34584        0.85458       -7.08735
H          2.19523        3.14067       -7.39978
H          4.29949        3.83956       -6.33155
H          5.43905        0.13010       -3.47331
H          4.32565       -1.12459       -3.86763
H          6.56393       -1.62743       -4.50760
H          6.62921       -0.33571       -5.49439
H          4.82923        4.20275       -3.52285
H          4.94941        2.69188       -2.58134
H          6.31472        3.82566       -2.62755

--Link1--
%chk=JID_8898.chk
%mem=8GB
%nprocshared=4
# B3LYP/6-311++G(d,p) empiricaldispersion=gd3bj scf=xqc pop=npa geom=check

CID_113385988_JID_8898_Energie_neutraal

0 1

--Link1--
%chk=JID_8898.chk
%mem=8GB
%nprocshared=4
# B3LYP/6-311++G(d,p) empiricaldispersion=gd3bj scf=xqc pop=npa geom=check

CID_113385988_JID_8898_Energie_kation

1 2

--Link1--
%chk=JID_8898.chk
%mem=8GB
%nprocshared=4
# B3LYP/6-311++G(d,p) empiricaldispersion=gd3bj scf=xqc pop=npa geom=check

CID_113385988_JID_8898_Energie_anion

-1 2
