%chk=JID_10662.chk
%mem=8GB
%nprocshared=4
# opt freq B3LYP/6-31G(d) empiricaldispersion=gd3bj scf=xqc

CID_143265767_JID_10662_neutraal

0 1
C         -1.09000        0.74600        0.20700
C         -1.07114       -0.75610        0.05577
C          0.36161       -1.11524        0.41808
O          1.15945        0.07177        0.21876
C          0.30717        1.15245       -0.23428
C          0.47806        1.29530       -1.75789
S          0.46747        3.01160       -2.40350
C         -1.21481        3.58215       -1.97271
C         -2.29666        3.23105       -3.00403
N         -2.47551        1.79701       -3.23387
N          0.50734       -1.57181        1.78827
C          1.05040       -0.89804        2.84867
N          0.99990       -1.60387        3.96087
C          0.40055       -2.79265        3.59617
C          0.06483       -3.95018        4.31810
N         -0.50043       -4.98488        3.65449
C         -0.74029       -4.84436        2.33245
N         -0.47607       -3.78531        1.53973
C          0.10057       -2.79721        2.24418
N          0.30265       -4.09480        5.67969
H         -1.90241        1.20891       -0.35463
H         -1.22730        0.99898        1.26551
H         -1.26175       -1.02173       -0.99091
H         -1.83452       -1.25158        0.66301
H          0.75898       -1.90722       -0.22653
H          0.63918        2.06010        0.28074
H          1.46125        0.89870       -2.03896
H         -0.24124        0.68364       -2.30646
H         -1.48977        3.24480       -0.97176
H         -1.15777        4.67513       -1.91223
H         -3.25023        3.64153       -2.65271
H         -2.07675        3.72140       -3.95971
H         -3.27158        1.66184       -3.85873
H         -1.66745        1.46228       -3.76214
H          1.46657        0.09765        2.75649
H         -1.20635       -5.69675        1.84599
H          1.01679       -3.46381        6.02672
H          0.36386       -5.06731        5.95003

--Link1--
%chk=JID_10662.chk
%mem=8GB
%nprocshared=4
# B3LYP/6-311++G(d,p) empiricaldispersion=gd3bj scf=xqc pop=npa geom=check

CID_143265767_JID_10662_Energie_neutraal

0 1

--Link1--
%chk=JID_10662.chk
%mem=8GB
%nprocshared=4
# B3LYP/6-311++G(d,p) empiricaldispersion=gd3bj scf=xqc pop=npa geom=check

CID_143265767_JID_10662_Energie_kation

1 2

--Link1--
%chk=JID_10662.chk
%mem=8GB
%nprocshared=4
# B3LYP/6-311++G(d,p) empiricaldispersion=gd3bj scf=xqc pop=npa geom=check

CID_143265767_JID_10662_Energie_anion

-1 2
