%chk=JID_3986.chk
%mem=8GB
%nprocshared=4
# opt freq B3LYP/6-31G(d) empiricaldispersion=gd3bj scf=xqc

CID_126514854_JID_3986_neutraal

0 1
C          1.04690       -0.04382       -0.07668
C          0.18324       -1.16524        0.44131
O         -1.00946       -0.96188        0.67442
N          0.78503       -2.40320        0.64748
C          2.12140       -2.76096        0.17436
C          2.09103       -3.80551       -0.94301
C          1.85769       -5.25071       -0.52791
C          1.23621       -5.66741        0.60840
C          0.61657       -4.73223        1.64047
C         -0.08768       -3.48995        1.08577
N          1.12052       -7.05170        0.82372
C          0.33850       -7.70824        1.84985
N          2.41469       -6.20472       -1.39029
H          0.47063        0.88676       -0.07232
H          1.35486       -0.24977       -1.10498
H          1.91633        0.09853        0.57048
H          2.70846       -3.10899        1.03211
H          2.64170       -1.87738       -0.20200
H          1.34780       -3.53132       -1.70225
H          3.07226       -3.75231       -1.43428
H         -0.16052       -5.27140        2.19346
H          1.37632       -4.45790        2.38228
H         -0.73296       -3.75902        0.23945
H         -0.74765       -3.09139        1.86690
H          1.06924       -7.53172       -0.07732
H         -0.73004       -7.52192        1.70499
H          0.50403       -8.78871        1.79797
H          0.63732       -7.37404        2.84812
H          2.75250       -7.00096       -0.84742
H          3.16192       -5.83250       -1.97036

--Link1--
%chk=JID_3986.chk
%mem=8GB
%nprocshared=4
# B3LYP/6-311++G(d,p) empiricaldispersion=gd3bj scf=xqc pop=npa geom=check

CID_126514854_JID_3986_Energie_neutraal

0 1

--Link1--
%chk=JID_3986.chk
%mem=8GB
%nprocshared=4
# B3LYP/6-311++G(d,p) empiricaldispersion=gd3bj scf=xqc pop=npa geom=check

CID_126514854_JID_3986_Energie_kation

1 2

--Link1--
%chk=JID_3986.chk
%mem=8GB
%nprocshared=4
# B3LYP/6-311++G(d,p) empiricaldispersion=gd3bj scf=xqc pop=npa geom=check

CID_126514854_JID_3986_Energie_anion

-1 2
