%chk=JID_6258.chk
%mem=8GB
%nprocshared=4
# opt freq B3LYP/6-31G(d) empiricaldispersion=gd3bj scf=xqc

CID_13512122_JID_6258_neutraal

0 1
C          0.91027       -0.03449        0.02755
C          0.07538        1.22814       -0.17145
C          0.56412        2.21877       -1.27501
O          1.99038        2.17737       -1.21123
C          2.71117        3.36203       -1.51271
C          2.11681        4.61522       -0.87407
C          0.63680        4.64227       -1.24161
O         -0.00570        3.46005       -0.80569
C          2.28888        4.55874        0.65527
C          2.81876        5.86829       -1.41294
C         -0.05374        1.89283       -2.66762
C          0.66881        2.39440       -3.92653
C          1.66644        1.30224       -4.28839
C          0.91041        0.00863       -4.04084
C         -0.10511        0.41546       -3.00363
O         -0.92745       -0.36857       -2.54227
H          1.06111       -0.59796       -0.89437
H          0.41627       -0.69471        0.74805
H          1.89633        0.21106        0.43574
H         -0.97966        0.97394       -0.33132
H          0.08501        1.74947        0.79710
H          2.79594        3.47202       -2.59619
H          3.73803        3.20800       -1.15965
H          0.13624        5.48517       -0.75105
H          0.47607        4.77605       -2.31555
H          1.83297        5.43324        1.13313
H          1.82894        3.66613        1.09140
H          3.34995        4.54712        0.92951
H          2.71266        5.94631       -2.50087
H          2.39620        6.77817       -0.97222
H          3.89013        5.85076       -1.18384
H         -1.08357        2.27268       -2.69692
H          1.12952        3.37605       -3.83248
H         -0.06148        2.48278       -4.74356
H          2.55332        1.34665       -3.64855
H          2.00568        1.38284       -5.32565
H          1.56305       -0.78244       -3.66562
H          0.38375       -0.31800       -4.94221

--Link1--
%chk=JID_6258.chk
%mem=8GB
%nprocshared=4
# B3LYP/6-311++G(d,p) empiricaldispersion=gd3bj scf=xqc pop=npa geom=check

CID_13512122_JID_6258_Energie_neutraal

0 1

--Link1--
%chk=JID_6258.chk
%mem=8GB
%nprocshared=4
# B3LYP/6-311++G(d,p) empiricaldispersion=gd3bj scf=xqc pop=npa geom=check

CID_13512122_JID_6258_Energie_kation

1 2

--Link1--
%chk=JID_6258.chk
%mem=8GB
%nprocshared=4
# B3LYP/6-311++G(d,p) empiricaldispersion=gd3bj scf=xqc pop=npa geom=check

CID_13512122_JID_6258_Energie_anion

-1 2
