%chk=JID_8284.chk
%mem=8GB
%nprocshared=4
# opt freq B3LYP/6-31G(d) empiricaldispersion=gd3bj scf=xqc

CID_114395627_JID_8284_neutraal

0 1
C          1.30600        0.17900       -0.14100
C          0.76931       -1.17699       -0.55850
C         -0.72766       -0.91465       -0.67886
N         -1.00309        0.09758        0.34764
C          0.25530        0.65988        0.85140
C         -2.26704        0.59237        0.64925
C         -3.38996        0.40591       -0.05230
C         -4.67545        1.03075        0.32254
O         -5.64909        0.86590       -0.40905
N         -4.67289        1.79677        1.47893
N         -3.56579        1.96297        2.27695
C         -2.46765        1.40792        1.87965
C         -5.90163        2.42540        1.95376
C         -5.75648        3.93470        2.17251
C         -5.36740        4.73475        0.91956
C         -6.38479        4.69143       -0.22109
C         -7.71585        5.28119        0.21578
N         -8.82008        5.77044        0.57819
H          2.30532        0.12623        0.29957
H          1.34569        0.85027       -1.00745
H          0.96327       -1.91604        0.22860
H          1.20829       -1.54344       -1.49029
H         -0.96741       -0.51850       -1.67208
H         -1.30113       -1.83204       -0.50914
H          0.45978        0.26900        1.85443
H          0.23634        1.75435        0.88828
H         -3.41198       -0.17398       -0.96465
H         -1.58335        1.53025        2.52397
H         -6.72849        2.21905        1.26678
H         -6.15803        1.94317        2.90482
H         -6.69552        4.32081        2.58589
H         -4.99450        4.11744        2.94064
H         -5.21468        5.77934        1.22081
H         -4.40046        4.38029        0.54324
H         -6.00771        5.27663       -1.06746
H         -6.54020        3.66827       -0.57648

--Link1--
%chk=JID_8284.chk
%mem=8GB
%nprocshared=4
# B3LYP/6-311++G(d,p) empiricaldispersion=gd3bj scf=xqc pop=npa geom=check

CID_114395627_JID_8284_Energie_neutraal

0 1

--Link1--
%chk=JID_8284.chk
%mem=8GB
%nprocshared=4
# B3LYP/6-311++G(d,p) empiricaldispersion=gd3bj scf=xqc pop=npa geom=check

CID_114395627_JID_8284_Energie_kation

1 2

--Link1--
%chk=JID_8284.chk
%mem=8GB
%nprocshared=4
# B3LYP/6-311++G(d,p) empiricaldispersion=gd3bj scf=xqc pop=npa geom=check

CID_114395627_JID_8284_Energie_anion

-1 2
