%chk=JID_7134.chk
%mem=8GB
%nprocshared=4
# opt freq B3LYP/6-31G(d) empiricaldispersion=gd3bj scf=xqc

CID_105250930_JID_7134_neutraal

0 1
C          0.96915        0.03412       -0.08879
C          0.02347       -0.01722        1.10265
C          0.42599        0.93159        2.20333
C          0.91981        0.44475        3.41867
C          1.28244        1.32450        4.44277
C          1.16168        2.71263        4.27776
C          0.68079        3.19562        3.05011
C          0.31196        2.31574        2.02862
C          1.53001        3.69335        5.39408
C          0.55190        3.64629        6.63371
C         -0.93562        3.74017        6.25719
C         -1.61015        2.93487        7.34257
C         -0.60060        1.83916        7.59772
O          0.70032        2.39774        7.36466
C          0.89637        4.76683        7.63726
N          2.94737        3.44536        5.78526
N          3.67202        4.69256        5.94434
H          0.97628        1.02521       -0.55429
H          0.65944       -0.69113       -0.84798
H          1.99530       -0.20392        0.21126
H         -0.99658        0.22397        0.77985
H         -0.01224       -1.04413        1.48641
H          1.02894       -0.62493        3.58146
H          1.66601        0.91784        5.37630
H          0.58315        4.26535        2.88034
H         -0.06567        2.72015        1.09229
H          1.44883        4.70146        4.96147
H         -1.30390        4.76904        6.19588
H         -1.15397        3.26074        5.29843
H         -2.59052        2.54775        7.05168
H         -1.74372        3.54551        8.24227
H         -0.73766        1.00615        6.90015
H         -0.65445        1.44875        8.61774
H          1.88346        4.61437        8.08589
H          0.87041        5.75175        7.15993
H          0.19704        4.78069        8.48046
H          2.91033        2.89761        6.65573
H          4.61310        4.50736        6.30592
H          3.83742        5.11737        5.02582

--Link1--
%chk=JID_7134.chk
%mem=8GB
%nprocshared=4
# B3LYP/6-311++G(d,p) empiricaldispersion=gd3bj scf=xqc pop=npa geom=check

CID_105250930_JID_7134_Energie_neutraal

0 1

--Link1--
%chk=JID_7134.chk
%mem=8GB
%nprocshared=4
# B3LYP/6-311++G(d,p) empiricaldispersion=gd3bj scf=xqc pop=npa geom=check

CID_105250930_JID_7134_Energie_kation

1 2

--Link1--
%chk=JID_7134.chk
%mem=8GB
%nprocshared=4
# B3LYP/6-311++G(d,p) empiricaldispersion=gd3bj scf=xqc pop=npa geom=check

CID_105250930_JID_7134_Energie_anion

-1 2
