%chk=JID_3725.chk
%mem=8GB
%nprocshared=4
# opt freq B3LYP/6-31G(d) empiricaldispersion=gd3bj scf=xqc

CID_115225179_JID_3725_neutraal

0 1
C          0.67700        1.21600        0.00700
C         -0.70874        1.26180       -0.00973
N         -1.49064        0.23075       -0.39401
C         -0.85753       -0.89415       -0.78823
C          0.52122       -1.03674       -0.80861
C          1.31300        0.03952       -0.39879
C          2.81837       -0.07393       -0.37460
C          3.38008       -0.51329        0.98896
N          3.08196       -1.92146        1.26990
C          3.67676       -2.39757        2.51843
C          3.03976       -1.85961        3.80696
C          1.53624       -2.08876        3.96592
S          1.07273       -3.84464        4.03007
H          1.24282        2.08264        0.33181
H         -1.24236        2.15690        0.29662
H         -1.50818       -1.70753       -1.09684
H          0.96603       -1.97118       -1.13583
H          3.15316       -0.76004       -1.16357
H          3.24614        0.90295       -0.63550
H          4.46767       -0.37590        0.96421
H          2.97815        0.13375        1.77675
H          2.07261       -2.06151        1.27735
H          3.62191       -3.49180        2.51599
H          4.74959       -2.16714        2.52657
H          3.56385       -2.30627        4.66228
H          3.22954       -0.78154        3.87822
H          1.20587       -1.63125        4.90448
H          0.97549       -1.60565        3.16005
H          1.37618       -4.13939        2.75713

--Link1--
%chk=JID_3725.chk
%mem=8GB
%nprocshared=4
# B3LYP/6-311++G(d,p) empiricaldispersion=gd3bj scf=xqc pop=npa geom=check

CID_115225179_JID_3725_Energie_neutraal

0 1

--Link1--
%chk=JID_3725.chk
%mem=8GB
%nprocshared=4
# B3LYP/6-311++G(d,p) empiricaldispersion=gd3bj scf=xqc pop=npa geom=check

CID_115225179_JID_3725_Energie_kation

1 2

--Link1--
%chk=JID_3725.chk
%mem=8GB
%nprocshared=4
# B3LYP/6-311++G(d,p) empiricaldispersion=gd3bj scf=xqc pop=npa geom=check

CID_115225179_JID_3725_Energie_anion

-1 2
