%chk=JID_4759.chk
%mem=8GB
%nprocshared=4
# opt freq B3LYP/6-31G(d) empiricaldispersion=gd3bj scf=xqc

CID_22249279_JID_4759_neutraal

0 1
C          1.04182        0.03534       -0.08368
C          0.44829       -1.01534       -1.04891
C          0.78755       -2.40696       -0.45933
C         -1.10679       -0.92135       -1.08755
O         -1.59802        0.40899       -1.22991
C          1.03812       -0.80201       -2.46224
C          1.78290       -1.79107       -3.13205
C          2.30479       -1.57144       -4.41323
C          2.08750       -0.34679       -5.04934
C          1.35265        0.65453       -4.41331
C          0.83622        0.42152       -3.13422
N          2.63308       -0.11348       -6.39110
O          3.23936       -1.04653       -6.93767
O          2.45892        1.00336       -6.90001
H          0.63920       -0.09037        0.92813
H          0.82747        1.06381       -0.39245
H          2.13266       -0.06030       -0.02252
H          0.37415       -2.51854        0.55041
H          0.37029       -3.21662       -1.06940
H          1.87012       -2.56028       -0.37867
H         -1.50739       -1.51339       -1.91864
H         -1.54585       -1.32244       -0.16625
H         -1.50610        0.85047       -0.36837
H          1.97779       -2.76028       -2.67969
H          2.87381       -2.36458       -4.89424
H          1.16647        1.61399       -4.89118
H          0.25827        1.21839       -2.66818

--Link1--
%chk=JID_4759.chk
%mem=8GB
%nprocshared=4
# B3LYP/6-311++G(d,p) empiricaldispersion=gd3bj scf=xqc pop=npa geom=check

CID_22249279_JID_4759_Energie_neutraal

0 1

--Link1--
%chk=JID_4759.chk
%mem=8GB
%nprocshared=4
# B3LYP/6-311++G(d,p) empiricaldispersion=gd3bj scf=xqc pop=npa geom=check

CID_22249279_JID_4759_Energie_kation

1 2

--Link1--
%chk=JID_4759.chk
%mem=8GB
%nprocshared=4
# B3LYP/6-311++G(d,p) empiricaldispersion=gd3bj scf=xqc pop=npa geom=check

CID_22249279_JID_4759_Energie_anion

-1 2
