%chk=JID_3691.chk
%mem=8GB
%nprocshared=4
# opt freq B3LYP/6-31G(d) empiricaldispersion=gd3bj scf=xqc

CID_131327859_JID_3691_neutraal

0 1
C          1.06200       -0.02574       -0.07412
C          0.60903       -0.46984        1.28348
C          0.62006       -1.80358        1.70202
C          0.13840       -2.13753        2.98554
C         -0.32794       -1.17919        3.87143
C         -0.30073        0.15297        3.47464
C          0.16245        0.50260        2.19866
C          0.14555       -3.61841        3.20789
C          1.17132       -4.05469        2.16228
C          1.03651       -3.06715        0.96968
C          2.37188       -2.99657        0.18793
O          2.71640       -4.26966       -0.37288
N         -0.04871       -3.54870        0.09631
H          0.71184        0.98800       -0.29823
H          0.65463       -0.67503       -0.85440
H          2.15476       -0.02111       -0.12559
H         -0.70809       -1.45767        4.84893
H         -0.65414        0.92726        4.15073
H          0.15576        1.55411        1.91644
H         -0.84474       -4.03840        3.00427
H          0.46644       -3.88844        4.21795
H          1.03933       -5.10532        1.87798
H          2.17630       -3.97434        2.60270
H          2.30781       -2.30374       -0.65424
H          3.19840       -2.66304        0.82562
H          2.92812       -4.86568        0.36615
H          0.33553       -4.30476       -0.47601
H         -0.28109       -2.81176       -0.56746

--Link1--
%chk=JID_3691.chk
%mem=8GB
%nprocshared=4
# B3LYP/6-311++G(d,p) empiricaldispersion=gd3bj scf=xqc pop=npa geom=check

CID_131327859_JID_3691_Energie_neutraal

0 1

--Link1--
%chk=JID_3691.chk
%mem=8GB
%nprocshared=4
# B3LYP/6-311++G(d,p) empiricaldispersion=gd3bj scf=xqc pop=npa geom=check

CID_131327859_JID_3691_Energie_kation

1 2

--Link1--
%chk=JID_3691.chk
%mem=8GB
%nprocshared=4
# B3LYP/6-311++G(d,p) empiricaldispersion=gd3bj scf=xqc pop=npa geom=check

CID_131327859_JID_3691_Energie_anion

-1 2
