%chk=JID_9582.chk
%mem=8GB
%nprocshared=4
# opt freq B3LYP/6-31G(d) empiricaldispersion=gd3bj scf=xqc

CID_105906623_JID_9582_neutraal

0 1
C          1.06372       -0.07560        0.01502
N          0.28597       -0.04017       -1.22552
C         -0.57840       -1.22640       -1.29701
C          1.19235        0.01576       -2.39999
C          0.52392        0.58641       -3.67120
O          0.73067        1.98836       -3.86039
C          0.23631        2.84830       -2.83575
C         -1.29666        2.99576       -2.76589
N         -1.97505        1.82271       -2.20377
C         -3.15903        2.14937       -1.41370
C         -4.21973        2.97396       -2.10206
C         -4.60983        4.20652       -1.53800
C         -5.61493        4.99785       -2.11914
C         -6.26214        4.57899       -3.27808
C         -5.88965        3.36291       -3.82296
C         -4.89460        2.56226       -3.24600
N         -4.61506        1.42542       -4.04331
C         -5.80646        1.29534       -4.88456
C         -6.38750        2.70859       -5.06773
H          1.73262       -0.94266        0.06015
H          0.39871       -0.10496        0.88544
H          1.66726        0.83332        0.11569
H         -1.28110       -1.23404       -0.45615
H         -1.18494       -1.22309       -2.20822
H         -0.00348       -2.15947       -1.27175
H          2.06249        0.64442       -2.17077
H          1.57893       -0.98984       -2.61138
H          1.00250        0.10804       -4.53408
H         -0.53739        0.33917       -3.75724
H          0.66105        2.58615       -1.86142
H          0.64264        3.83911       -3.07201
H         -1.49410        3.88009       -2.14790
H         -1.68989        3.18105       -3.77125
H         -1.31408        1.29601       -1.62230
H         -3.62680        1.21078       -1.09096
H         -2.83606        2.64664       -0.49008
H         -4.12299        4.56790       -0.63456
H         -5.88212        5.94779       -1.66249
H         -7.02690        5.19231       -3.74141
H         -4.32445        0.62322       -3.49424
H         -5.56103        0.83581       -5.84725
H         -6.53603        0.64747       -4.38073
H         -7.47847        2.68961       -5.13571
H         -5.96114        3.20093       -5.94792

--Link1--
%chk=JID_9582.chk
%mem=8GB
%nprocshared=4
# B3LYP/6-311++G(d,p) empiricaldispersion=gd3bj scf=xqc pop=npa geom=check

CID_105906623_JID_9582_Energie_neutraal

0 1

--Link1--
%chk=JID_9582.chk
%mem=8GB
%nprocshared=4
# B3LYP/6-311++G(d,p) empiricaldispersion=gd3bj scf=xqc pop=npa geom=check

CID_105906623_JID_9582_Energie_kation

1 2

--Link1--
%chk=JID_9582.chk
%mem=8GB
%nprocshared=4
# B3LYP/6-311++G(d,p) empiricaldispersion=gd3bj scf=xqc pop=npa geom=check

CID_105906623_JID_9582_Energie_anion

-1 2
