%chk=JID_7209.chk
%mem=8GB
%nprocshared=4
# opt freq B3LYP/6-31G(d) empiricaldispersion=gd3bj scf=xqc

CID_104603975_JID_7209_neutraal

0 1
C          0.95242       -0.07043        0.05269
N          0.41316        0.21642        1.37965
C         -1.05641       -0.02674        1.51945
C         -1.39940       -1.54707        1.69474
S         -0.81895       -2.39379        3.21884
C          0.72465       -3.00990        2.76541
N          1.42444       -2.68261        1.70687
C          2.56073       -3.42777        1.84992
N          2.60743       -4.19978        2.93803
N          1.42065       -3.91684        3.51498
C          1.04662       -4.54722        4.75436
C         -1.41793        0.73742        2.80867
C         -1.86919        2.18136        2.84655
C         -2.84939        1.08235        3.15385
C         -1.82312        0.54158        0.27564
O         -1.66843        1.62616       -0.26938
O         -2.77548       -0.27978       -0.22132
H          0.67258        0.69722       -0.67382
H          0.64792       -1.05062       -0.32471
H          2.04630       -0.06189        0.10517
H          0.88981       -0.40811        2.03483
H         -2.48995       -1.65172        1.75199
H         -1.09132       -2.12657        0.81678
H          3.37903       -3.40522        1.14122
H          1.82493       -5.25448        5.05338
H          0.93866       -3.77518        5.52006
H          0.10563       -5.08259        4.60587
H         -0.77771        0.44602        3.63825
H         -1.51343        2.79354        3.66903
H         -1.98537        2.73824        1.92538
H         -3.63578        0.89284        2.43284
H         -3.16292        0.95768        4.18485
H         -3.14052        0.24168       -0.96842

--Link1--
%chk=JID_7209.chk
%mem=8GB
%nprocshared=4
# B3LYP/6-311++G(d,p) empiricaldispersion=gd3bj scf=xqc pop=npa geom=check

CID_104603975_JID_7209_Energie_neutraal

0 1

--Link1--
%chk=JID_7209.chk
%mem=8GB
%nprocshared=4
# B3LYP/6-311++G(d,p) empiricaldispersion=gd3bj scf=xqc pop=npa geom=check

CID_104603975_JID_7209_Energie_kation

1 2

--Link1--
%chk=JID_7209.chk
%mem=8GB
%nprocshared=4
# B3LYP/6-311++G(d,p) empiricaldispersion=gd3bj scf=xqc pop=npa geom=check

CID_104603975_JID_7209_Energie_anion

-1 2
