%chk=JID_4034.chk
%mem=8GB
%nprocshared=4
# opt freq B3LYP/6-31G(d) empiricaldispersion=gd3bj scf=xqc

CID_87747373_JID_4034_neutraal

0 1
C          0.91013        0.03734        0.02299
C          0.76812        0.68008        1.39375
C          1.37494        2.08524        1.49366
C          0.68509        3.13899        0.64024
C         -0.40467        3.82225        1.07394
C         -1.10679        3.61269        2.38746
C         -1.02708        4.88651        0.23180
O         -1.34184        4.76063       -0.93967
O         -1.15930        6.00684        0.98416
C         -1.73651        7.15300        0.33131
C         -0.68848        7.90209       -0.50505
N         -0.62534        7.42918       -1.88784
C          1.37338        3.40232       -0.69096
C          2.36196        4.55719       -0.60746
H          0.33049        0.57549       -0.73292
H          0.54039       -0.99277        0.05160
H          1.95773        0.01094       -0.29282
H         -0.29260        0.70091        1.66819
H          1.26838        0.03815        2.12909
H          1.35998        2.39972        2.54499
H          2.44182        2.04132        1.23863
H         -0.84402        4.40802        3.09268
H         -2.19339        3.62196        2.24583
H         -0.86411        2.65692        2.85753
H         -2.62342        6.87060       -0.24933
H         -2.08334        7.81156        1.13521
H         -0.94256        8.96647       -0.53525
H          0.29953        7.79779       -0.04363
H          0.28455        7.64683       -2.28903
H         -0.71582        6.40590       -1.90729
H          1.91145        2.50435       -1.01678
H          0.64933        3.59139       -1.48838
H          3.13780        4.36239        0.14031
H          2.85484        4.70029       -1.57453
H          1.86207        5.49481       -0.34425

--Link1--
%chk=JID_4034.chk
%mem=8GB
%nprocshared=4
# B3LYP/6-311++G(d,p) empiricaldispersion=gd3bj scf=xqc pop=npa geom=check

CID_87747373_JID_4034_Energie_neutraal

0 1

--Link1--
%chk=JID_4034.chk
%mem=8GB
%nprocshared=4
# B3LYP/6-311++G(d,p) empiricaldispersion=gd3bj scf=xqc pop=npa geom=check

CID_87747373_JID_4034_Energie_kation

1 2

--Link1--
%chk=JID_4034.chk
%mem=8GB
%nprocshared=4
# B3LYP/6-311++G(d,p) empiricaldispersion=gd3bj scf=xqc pop=npa geom=check

CID_87747373_JID_4034_Energie_anion

-1 2
