%chk=JID_8471.chk
%mem=8GB
%nprocshared=4
# opt freq B3LYP/6-31G(d) empiricaldispersion=gd3bj scf=xqc

CID_64513717_JID_8471_neutraal

0 1
C          1.03514        0.07372        0.05771
C          1.01219       -1.44294       -0.05446
C          1.63598       -2.15189        1.15184
C          0.96478       -1.89122        2.51107
C         -0.55758       -2.09335        2.58965
C         -1.03739       -3.51480        2.42714
C         -1.93438       -3.84904        1.40175
C         -2.38023       -5.16364        1.25767
C         -1.89455       -6.16885        2.09778
C         -1.03902       -5.84030        3.14714
C         -0.61249       -4.52000        3.30977
O         -2.32636       -7.45860        1.93442
C         -1.28862       -8.32197        1.45411
C         -1.26318       -8.33730       -0.06499
O         -3.22339       -5.44206        0.21471
C         -4.55889       -5.67073        0.68094
C         -5.25241       -6.59061       -0.30676
O          1.70549       -3.55173        0.88837
H          0.41142        0.42512        0.88467
H          0.65095        0.52416       -0.86310
H          2.05483        0.43990        0.21327
H         -0.01378       -1.79087       -0.21946
H          1.56176       -1.73947       -0.95721
H          2.67856       -1.82203        1.23738
H          1.45151       -2.52268        3.26476
H          1.17206       -0.85354        2.80163
H         -0.90160       -1.74654        3.57336
H         -1.05607       -1.44001        1.86426
H         -2.29498       -3.09184        0.70997
H         -0.70189       -6.60590        3.83981
H          0.06189       -4.28352        4.13025
H         -0.30142       -8.06695        1.85812
H         -1.52743       -9.32846        1.81502
H         -0.97964       -7.35764       -0.46233
H         -0.54638       -9.07774       -0.43148
H         -2.25357       -8.57361       -0.46692
H         -4.59545       -6.12172        1.68005
H         -5.08105       -4.70781        0.71885
H         -4.73351       -7.55324       -0.36330
H         -6.29049       -6.76787       -0.01179
H         -5.23850       -6.16041       -1.31342
H          0.80323       -3.88201        0.73310

--Link1--
%chk=JID_8471.chk
%mem=8GB
%nprocshared=4
# B3LYP/6-311++G(d,p) empiricaldispersion=gd3bj scf=xqc pop=npa geom=check

CID_64513717_JID_8471_Energie_neutraal

0 1

--Link1--
%chk=JID_8471.chk
%mem=8GB
%nprocshared=4
# B3LYP/6-311++G(d,p) empiricaldispersion=gd3bj scf=xqc pop=npa geom=check

CID_64513717_JID_8471_Energie_kation

1 2

--Link1--
%chk=JID_8471.chk
%mem=8GB
%nprocshared=4
# B3LYP/6-311++G(d,p) empiricaldispersion=gd3bj scf=xqc pop=npa geom=check

CID_64513717_JID_8471_Energie_anion

-1 2
