%chk=JID_6977.chk
%mem=8GB
%nprocshared=4
# opt freq B3LYP/6-31G(d) empiricaldispersion=gd3bj scf=xqc

CID_116280196_JID_6977_neutraal

0 1
C          1.02615       -0.09579        0.01186
C          0.45836        0.63030       -1.19503
C          0.92199        0.05783       -2.53932
C          0.59455       -1.42822       -2.77294
C         -0.89589       -1.79402       -2.71969
N         -1.61507       -1.19693       -3.84216
C         -3.07687       -1.20397       -3.66085
C         -3.60192       -0.08243       -2.76590
C         -3.83321       -1.24914       -5.01548
O         -4.68088       -2.14340       -5.16812
N         -3.64938       -0.28570       -6.00810
C         -2.66936        0.80179       -5.99040
C         -1.40714        0.49356       -6.77998
C         -4.42986       -0.44417       -7.23913
C         -3.89917       -1.53857       -8.15590
O          0.33431        0.84992       -3.57843
H          0.64425       -1.11848        0.08139
H          0.74245        0.42576        0.93166
H          2.11909       -0.13490       -0.03134
H         -0.63665        0.64379       -1.14181
H          0.75672        1.68554       -1.14417
H          2.00914        0.17725       -2.62440
H          0.98533       -1.71977       -3.75731
H          1.13108       -2.03887       -2.03734
H         -0.99279       -2.88429       -2.77858
H         -1.31149       -1.48364       -1.75600
H         -1.26369       -0.24255       -3.96218
H         -3.34380       -2.15574       -3.17826
H         -3.28294        0.91034       -3.09178
H         -4.69760       -0.08153       -2.75503
H         -3.26139       -0.21164       -1.73335
H         -3.15112        1.69747       -6.40036
H         -2.40102        1.06236       -4.97003
H         -1.61479        0.45635       -7.85331
H         -0.66089        1.27790       -6.61820
H         -0.96883       -0.46522       -6.48876
H         -5.46531       -0.68032       -6.96571
H         -4.45837        0.51157       -7.77419
H         -3.89949       -2.51462       -7.66126
H         -4.52519       -1.61428       -9.05060
H         -2.87517       -1.33374       -8.47832
H          0.73541        1.73545       -3.52009

--Link1--
%chk=JID_6977.chk
%mem=8GB
%nprocshared=4
# B3LYP/6-311++G(d,p) empiricaldispersion=gd3bj scf=xqc pop=npa geom=check

CID_116280196_JID_6977_Energie_neutraal

0 1

--Link1--
%chk=JID_6977.chk
%mem=8GB
%nprocshared=4
# B3LYP/6-311++G(d,p) empiricaldispersion=gd3bj scf=xqc pop=npa geom=check

CID_116280196_JID_6977_Energie_kation

1 2

--Link1--
%chk=JID_6977.chk
%mem=8GB
%nprocshared=4
# B3LYP/6-311++G(d,p) empiricaldispersion=gd3bj scf=xqc pop=npa geom=check

CID_116280196_JID_6977_Energie_anion

-1 2
