%chk=JID_9842.chk
%mem=8GB
%nprocshared=4
# opt freq B3LYP/6-31G(d) empiricaldispersion=gd3bj scf=xqc

CID_11288381_JID_9842_neutraal

0 1
C          0.90146       -0.01180       -0.01230
C          0.15570       -0.99909        0.87952
C          0.66773       -1.01821        2.31529
O         -1.27814       -0.82321        0.82032
C         -1.83853        0.33876        1.23847
O         -1.23022        1.30117        1.68216
C         -3.31972        0.32267        1.09131
C         -3.98791       -0.80560        0.77312
C         -5.42496       -0.96466        0.64655
C         -6.00355       -2.14693        0.37985
C         -7.45687       -2.32873        0.25203
C         -8.04437       -3.49076        0.76891
C         -9.41888       -3.70895        0.64389
C        -10.21725       -2.77325       -0.01048
C         -9.64185       -1.62193       -0.54383
C         -8.26769       -1.40262       -0.41768
C         -4.05871        1.59241        1.35643
O         -4.83497        2.05985        0.52274
C         -3.82449        2.28289        2.67511
H          0.86177        1.00859        0.37975
H          0.45793        0.01072       -1.01322
H          1.95590       -0.29176       -0.10273
H          0.32533       -1.99935        0.46295
H          0.59111       -0.03611        2.79104
H          0.07848       -1.71416        2.92172
H          1.71747       -1.32649        2.34973
H         -3.42314       -1.72115        0.59936
H         -6.05126       -0.08483        0.78134
H         -5.40788       -3.04908        0.26349
H         -7.43844       -4.23273        1.28365
H         -9.86516       -4.60972        1.05699
H        -11.28627       -2.94276       -0.10894
H        -10.26037       -0.89421       -1.06282
H         -7.83817       -0.50464       -0.85666
H         -4.78437        2.62565        3.07216
H         -3.38902        1.59698        3.40700
H         -3.15880        3.13679        2.52832

--Link1--
%chk=JID_9842.chk
%mem=8GB
%nprocshared=4
# B3LYP/6-311++G(d,p) empiricaldispersion=gd3bj scf=xqc pop=npa geom=check

CID_11288381_JID_9842_Energie_neutraal

0 1

--Link1--
%chk=JID_9842.chk
%mem=8GB
%nprocshared=4
# B3LYP/6-311++G(d,p) empiricaldispersion=gd3bj scf=xqc pop=npa geom=check

CID_11288381_JID_9842_Energie_kation

1 2

--Link1--
%chk=JID_9842.chk
%mem=8GB
%nprocshared=4
# B3LYP/6-311++G(d,p) empiricaldispersion=gd3bj scf=xqc pop=npa geom=check

CID_11288381_JID_9842_Energie_anion

-1 2
