%chk=JID_3087.chk
%mem=8GB
%nprocshared=4
# opt freq B3LYP/6-31G(d) empiricaldispersion=gd3bj scf=xqc

CID_22219795_JID_3087_neutraal

0 1
C          1.03370        0.03677        0.08667
C          0.49082        0.72337        1.34550
C          1.35765        1.92576        1.71289
C         -1.02271        0.91678        1.24389
C         -1.72119        2.05850        0.78755
C         -3.13353        2.00389        0.71451
C         -3.85433        0.87255        1.09286
C         -3.18608       -0.25976        1.54550
C         -1.78680       -0.22247        1.61696
C         -3.95124       -1.49197        1.94941
N         -4.65634       -1.28995        3.20897
C         -1.09970        3.35865        0.33234
N         -0.66383        3.30332       -1.05540
H          0.91312        0.66179       -0.80250
H          0.51773       -0.91066       -0.10493
H          2.10066       -0.18626        0.19659
H          0.65229        0.02164        2.17767
H          1.52145        2.59347        0.86256
H          0.92582        2.49239        2.54406
H          2.35143        1.58756        2.03012
H         -3.69001        2.86490        0.34598
H         -4.94014        0.87963        1.03130
H         -1.26715       -1.11570        1.96424
H         -4.66805       -1.74961        1.16130
H         -3.27188       -2.34669        2.04678
H         -5.04827       -2.17648        3.51782
H         -3.98291       -1.00570        3.91868
H         -1.83660        4.16745        0.41925
H         -0.29342        3.67146        0.99543
H         -0.17486        4.16490       -1.28625
H          0.00833        2.54942       -1.16474

--Link1--
%chk=JID_3087.chk
%mem=8GB
%nprocshared=4
# B3LYP/6-311++G(d,p) empiricaldispersion=gd3bj scf=xqc pop=npa geom=check

CID_22219795_JID_3087_Energie_neutraal

0 1

--Link1--
%chk=JID_3087.chk
%mem=8GB
%nprocshared=4
# B3LYP/6-311++G(d,p) empiricaldispersion=gd3bj scf=xqc pop=npa geom=check

CID_22219795_JID_3087_Energie_kation

1 2

--Link1--
%chk=JID_3087.chk
%mem=8GB
%nprocshared=4
# B3LYP/6-311++G(d,p) empiricaldispersion=gd3bj scf=xqc pop=npa geom=check

CID_22219795_JID_3087_Energie_anion

-1 2
