%chk=JID_5680.chk
%mem=8GB
%nprocshared=4
# opt freq B3LYP/6-31G(d) empiricaldispersion=gd3bj scf=xqc

CID_116885608_JID_5680_neutraal

0 1
C         -2.55700       -0.42200       -0.01100
C         -1.10627       -0.13725       -0.18448
C         -0.08108       -1.05001       -0.43276
S          1.40741       -0.17731       -0.53265
C          0.58385        1.29696       -0.26204
N         -0.71196        1.19023       -0.08996
C          1.33401        2.59459       -0.20840
C          1.37868        3.31355       -1.56921
C          0.00493        3.85095       -1.98106
C          2.38354        4.46710       -1.51370
C         -0.13143       -2.57696       -0.54370
C          1.10239       -3.19480       -1.24091
C         -0.18166       -3.15471        0.89156
N         -1.36967       -3.03189       -1.21950
C         -1.45217       -2.71202       -2.64007
H         -3.06952        0.44206        0.42509
H         -3.02491       -0.63307       -0.97699
H         -2.72076       -1.27062        0.65856
H          0.86551        3.24298        0.54327
H          2.35612        2.40909        0.14668
H          1.71627        2.61166       -2.34269
H         -0.39954        4.53001       -1.22262
H          0.07146        4.40230       -2.92522
H         -0.71359        3.03909       -2.12907
H          3.38623        4.09814       -1.27316
H          2.44147        4.98045       -2.47939
H          2.10141        5.20405       -0.75396
H          2.01364       -3.05980       -0.64585
H          0.97883       -4.27631       -1.37805
H          1.28759       -2.75346       -2.22684
H         -1.06321       -2.80854        1.44367
H         -0.20760       -4.25120        0.88310
H          0.69913       -2.85214        1.47124
H         -1.46040       -4.04112       -1.10854
H         -0.73421       -3.28768       -3.23166
H         -2.45160       -2.97397       -3.00240
H         -1.30865       -1.64618       -2.83928

--Link1--
%chk=JID_5680.chk
%mem=8GB
%nprocshared=4
# B3LYP/6-311++G(d,p) empiricaldispersion=gd3bj scf=xqc pop=npa geom=check

CID_116885608_JID_5680_Energie_neutraal

0 1

--Link1--
%chk=JID_5680.chk
%mem=8GB
%nprocshared=4
# B3LYP/6-311++G(d,p) empiricaldispersion=gd3bj scf=xqc pop=npa geom=check

CID_116885608_JID_5680_Energie_kation

1 2

--Link1--
%chk=JID_5680.chk
%mem=8GB
%nprocshared=4
# B3LYP/6-311++G(d,p) empiricaldispersion=gd3bj scf=xqc pop=npa geom=check

CID_116885608_JID_5680_Energie_anion

-1 2
