%chk=JID_10065.chk
%mem=8GB
%nprocshared=4
# opt freq B3LYP/6-31G(d) empiricaldispersion=gd3bj scf=xqc

CID_84360033_JID_10065_neutraal

0 1
C          1.06508       -0.04302       -0.06256
C         -0.00248        0.92186       -0.56123
C          0.54436        1.99467       -1.47189
C          1.15147        1.65230       -2.69195
C          1.64196        2.65844       -3.55000
C          1.50930        3.99844       -3.17502
C          0.89686        4.36124       -1.96518
C          0.42276        3.34408       -1.12728
N          2.06557        4.75873       -4.18848
C          2.50800        3.93480       -5.19683
C          2.27929        2.63338       -4.81821
C          2.08858        6.21485       -4.25203
C          3.42320        6.76851       -4.71436
O          3.59037        7.08348       -5.90008
N          4.48110        6.92564       -3.87348
C          4.49725        6.70277       -2.53180
N          3.51157        6.38036       -1.73847
C          3.99402        6.23292       -0.45200
C          5.34019        6.48472       -0.29033
S          6.02734        6.91046       -1.80410
H          1.51532       -0.60842       -0.88478
H          0.62551       -0.76281        0.63539
H          1.86699        0.49092        0.45846
H         -0.78366        0.36921       -1.09691
H         -0.48987        1.38100        0.30762
H          1.24111        0.61168       -2.99039
H          0.79498        5.40006       -1.66889
H         -0.05219        3.62693       -0.18989
H          2.94658        4.33682       -6.10200
H          2.52471        1.75520       -5.40016
H          1.32700        6.49639       -4.99025
H          1.77211        6.65404       -3.30645
H          5.34084        7.23647       -4.30215
H          3.31389        5.93857        0.33850
H          5.93226        6.43824        0.61222

--Link1--
%chk=JID_10065.chk
%mem=8GB
%nprocshared=4
# B3LYP/6-311++G(d,p) empiricaldispersion=gd3bj scf=xqc pop=npa geom=check

CID_84360033_JID_10065_Energie_neutraal

0 1

--Link1--
%chk=JID_10065.chk
%mem=8GB
%nprocshared=4
# B3LYP/6-311++G(d,p) empiricaldispersion=gd3bj scf=xqc pop=npa geom=check

CID_84360033_JID_10065_Energie_kation

1 2

--Link1--
%chk=JID_10065.chk
%mem=8GB
%nprocshared=4
# B3LYP/6-311++G(d,p) empiricaldispersion=gd3bj scf=xqc pop=npa geom=check

CID_84360033_JID_10065_Energie_anion

-1 2
