%chk=JID_10841.chk
%mem=8GB
%nprocshared=4
# opt freq B3LYP/6-31G(d) empiricaldispersion=gd3bj scf=xqc

CID_61614568_JID_10841_neutraal

0 1
C          2.49200        0.00400       -0.01400
C          1.02222       -0.15753       -0.26348
C          0.54200       -1.25285       -0.98709
C         -0.83062       -1.42582       -1.19068
C         -1.75692       -0.50627       -0.67559
C         -1.26564        0.57209        0.08047
C          0.10610        0.74456        0.28414
C         -3.27217       -0.65330       -0.86608
C         -3.68590       -1.25896       -2.24938
N         -3.27633       -0.44829       -3.41090
N         -3.89354       -1.24392        0.33215
C         -5.17319       -0.66124        0.74868
C         -6.38532       -1.20671       -0.00100
O         -6.91863       -2.28489        0.24045
N         -6.88598       -0.39735       -0.98277
C         -3.59246       -2.62881        0.68774
C         -4.08825       -3.10907        2.06218
C         -3.83506       -4.60744        2.00348
C         -4.29167       -4.98382        0.60193
C         -4.03681       -3.74921       -0.26862
H          2.77413       -0.51220        0.90875
H          3.07684       -0.40795       -0.84317
H          2.75844        1.06238        0.07598
H          1.23443       -1.98692       -1.39368
H         -1.15926       -2.30061       -1.74539
H         -1.95684        1.28264        0.52888
H          0.45284        1.58586        0.87991
H         -3.62650        0.38761       -0.92208
H         -3.27785       -2.26134       -2.39330
H         -4.77256       -1.35893       -2.30219
H         -2.25517       -0.40077       -3.43063
H         -3.58106        0.51530       -3.28226
H         -5.34794       -0.80145        1.82101
H         -5.14679        0.43018        0.63383
H         -6.37315        0.39098       -1.35003
H         -7.64085       -0.77645       -1.54061
H         -2.49791       -2.70228        0.75287
H         -3.54944       -2.63340        2.88752
H         -5.16065       -2.94161        2.20522
H         -4.37971       -5.15450        2.77834
H         -2.76578       -4.81789        2.12341
H         -5.36399       -5.21300        0.60643
H         -3.76723       -5.86779        0.22629
H         -4.94133       -3.50225       -0.83058
H         -3.24964       -3.96560       -0.99873

--Link1--
%chk=JID_10841.chk
%mem=8GB
%nprocshared=4
# B3LYP/6-311++G(d,p) empiricaldispersion=gd3bj scf=xqc pop=npa geom=check

CID_61614568_JID_10841_Energie_neutraal

0 1

--Link1--
%chk=JID_10841.chk
%mem=8GB
%nprocshared=4
# B3LYP/6-311++G(d,p) empiricaldispersion=gd3bj scf=xqc pop=npa geom=check

CID_61614568_JID_10841_Energie_kation

1 2

--Link1--
%chk=JID_10841.chk
%mem=8GB
%nprocshared=4
# B3LYP/6-311++G(d,p) empiricaldispersion=gd3bj scf=xqc pop=npa geom=check

CID_61614568_JID_10841_Energie_anion

-1 2
