%chk=JID_10187.chk
%mem=8GB
%nprocshared=4
# opt freq B3LYP/6-31G(d) empiricaldispersion=gd3bj scf=xqc

CID_140973143_JID_10187_neutraal

0 1
C         -1.50500        0.02200       -0.20100
C         -0.95195        1.23698        0.54064
C          0.44946        1.60146        0.05341
N          1.34629        0.44021        0.08203
C          0.85436       -0.71954       -0.67222
C         -0.51854       -1.14284       -0.15108
C          2.21279        0.26172        1.12897
C          2.30603        0.74480        2.42663
C          3.50935        0.23091        3.01462
C          4.13564        0.35408        4.27442
C          5.34902       -0.30151        4.51371
C          5.94441       -1.07343        3.51963
C          5.34735       -1.21351        2.26366
C          4.13208       -0.55256        2.04581
N          3.33527       -0.50774        0.92810
N          1.38304        1.54112        3.04240
C          1.77586        2.90583        3.42543
C          1.20433        3.11055        4.82656
C          0.02730        2.15351        4.86472
C          0.57484        0.94694        4.11502
H         -2.46160       -0.27973        0.23973
H         -1.70237        0.29004       -1.24618
H         -1.62416        2.09125        0.40259
H         -0.93564        1.01760        1.61157
H          0.38085        1.94826       -0.98617
H          0.85165        2.45183        0.61283
H          1.53920       -1.57355       -0.62328
H          0.77982       -0.44569       -1.73210
H         -0.42881       -1.49965        0.88254
H         -0.90132       -1.97666       -0.74989
H          3.67981        0.95625        5.05292
H          5.82930       -0.20390        5.48379
H          6.88832       -1.57430        3.72139
H          5.81307       -1.81386        1.48933
H          3.56224       -0.93866        0.04787
H          1.31730        3.61301        2.72525
H          2.85863        3.07412        3.41583
H          1.94633        2.82287        5.58087
H          0.91546        4.14873        5.01254
H         -0.28963        1.90842        5.88197
H         -0.82684        2.58203        4.32680
H          1.18468        0.33537        4.79091
H         -0.23031        0.32212        3.71651

--Link1--
%chk=JID_10187.chk
%mem=8GB
%nprocshared=4
# B3LYP/6-311++G(d,p) empiricaldispersion=gd3bj scf=xqc pop=npa geom=check

CID_140973143_JID_10187_Energie_neutraal

0 1

--Link1--
%chk=JID_10187.chk
%mem=8GB
%nprocshared=4
# B3LYP/6-311++G(d,p) empiricaldispersion=gd3bj scf=xqc pop=npa geom=check

CID_140973143_JID_10187_Energie_kation

1 2

--Link1--
%chk=JID_10187.chk
%mem=8GB
%nprocshared=4
# B3LYP/6-311++G(d,p) empiricaldispersion=gd3bj scf=xqc pop=npa geom=check

CID_140973143_JID_10187_Energie_anion

-1 2
