%chk=JID_10965.chk
%mem=8GB
%nprocshared=4
# opt freq B3LYP/6-31G(d) empiricaldispersion=gd3bj scf=xqc

CID_81017710_JID_10965_neutraal

0 1
C          1.02464        0.08057       -0.05386
C          0.47193       -0.83068        1.02910
N          0.58578       -0.18762        2.33142
C         -0.19066       -0.85012        3.38056
C          0.44170       -2.13822        3.90416
C         -0.31877       -2.74118        5.11298
C          0.05242       -4.14266        4.60908
C          0.30509       -3.53859        3.20382
C         -0.77788       -3.79194        2.05678
C         -2.15502       -3.53890        2.21409
C         -3.05823       -3.68388        1.15762
C         -2.60129       -4.04445       -0.10938
C         -1.26690       -4.38940       -0.28362
C         -0.37632       -4.26456        0.78649
O         -3.47636       -4.10025       -1.16129
C         -3.23932       -3.05475       -2.11438
C         -3.89274       -1.75044       -1.68540
O         -4.36198       -3.33639        1.39145
C         -5.22820       -4.47599        1.34549
C         -6.56204       -4.03354        0.77342
H          0.47428        1.02669       -0.09438
H          0.93847       -0.40181       -1.03292
H          2.08246        0.30627        0.11864
H         -0.57542       -1.04417        0.79002
H          1.03820       -1.76576        1.01835
H          1.56227       -0.09689        2.60575
H         -0.24528       -0.13811        4.21362
H         -1.22729       -0.99857        3.06098
H          1.49223       -1.94387        4.17579
H          0.08212       -2.47718        6.09606
H         -1.39740       -2.54929        5.12019
H         -0.74212       -4.89030        4.68419
H          0.95715       -4.54965        5.07617
H          1.29144       -3.86125        2.83384
H         -2.53623       -3.19217        3.17091
H         -0.90828       -4.73350       -1.24895
H          0.67257       -4.50580        0.61835
H         -2.17153       -2.90851       -2.31794
H         -3.69454       -3.38366       -3.05501
H         -3.42388       -1.35295       -0.77963
H         -3.80309       -0.99738       -2.47374
H         -4.95283       -1.90289       -1.46036
H         -4.83118       -5.30526        0.74748
H         -5.36771       -4.83644        2.37091
H         -6.43669       -3.65933       -0.24786
H         -7.27434       -4.86310        0.75835
H         -6.98444       -3.21412        1.36411

--Link1--
%chk=JID_10965.chk
%mem=8GB
%nprocshared=4
# B3LYP/6-311++G(d,p) empiricaldispersion=gd3bj scf=xqc pop=npa geom=check

CID_81017710_JID_10965_Energie_neutraal

0 1

--Link1--
%chk=JID_10965.chk
%mem=8GB
%nprocshared=4
# B3LYP/6-311++G(d,p) empiricaldispersion=gd3bj scf=xqc pop=npa geom=check

CID_81017710_JID_10965_Energie_kation

1 2

--Link1--
%chk=JID_10965.chk
%mem=8GB
%nprocshared=4
# B3LYP/6-311++G(d,p) empiricaldispersion=gd3bj scf=xqc pop=npa geom=check

CID_81017710_JID_10965_Energie_anion

-1 2
