%chk=JID_3662.chk
%mem=8GB
%nprocshared=4
# opt freq B3LYP/6-31G(d) empiricaldispersion=gd3bj scf=xqc

CID_82602224_JID_3662_neutraal

0 1
C          1.07251       -0.04574        0.05149
N          0.14821        0.86976        0.70855
C         -1.22502        0.64293        0.26884
C          0.28462        0.89515        2.17250
C          0.06347       -0.43030        2.93211
C          1.37280       -1.17926        3.29312
C          1.07545       -2.65462        3.62699
C          0.41201       -2.83027        4.99107
N          1.21318       -2.22476        6.05325
C          1.41387       -0.79438        5.81668
C          2.12895       -0.50758        4.47846
C          3.60938       -0.94305        4.58117
N          4.40186       -0.49844        3.43401
H          1.03343        0.08857       -1.03549
H          0.84960       -1.09600        0.26786
H          2.10503        0.16364        0.35173
H         -1.58507       -0.36481        0.49948
H         -1.90559        1.36709        0.73021
H         -1.30594        0.78921       -0.81430
H          1.26800        1.31426        2.41500
H         -0.43103        1.63198        2.56121
H         -0.50222       -0.20706        3.84380
H         -0.58807       -1.09097        2.34959
H          2.00570       -1.17515        2.40101
H          0.44097       -3.09930        2.85083
H          2.01359       -3.22402        3.60905
H         -0.59911       -2.40646        4.98780
H          0.30485       -3.90063        5.19893
H          0.73671       -2.35339        6.94622
H          2.00615       -0.38562        6.64394
H          0.44943       -0.27452        5.85528
H          2.12540        0.58103        4.33922
H          4.05377       -0.49887        5.47955
H          3.70433       -2.02900        4.68336
H          5.37823       -0.74579        3.59381
H          4.12130       -1.01580        2.60301

--Link1--
%chk=JID_3662.chk
%mem=8GB
%nprocshared=4
# B3LYP/6-311++G(d,p) empiricaldispersion=gd3bj scf=xqc pop=npa geom=check

CID_82602224_JID_3662_Energie_neutraal

0 1

--Link1--
%chk=JID_3662.chk
%mem=8GB
%nprocshared=4
# B3LYP/6-311++G(d,p) empiricaldispersion=gd3bj scf=xqc pop=npa geom=check

CID_82602224_JID_3662_Energie_kation

1 2

--Link1--
%chk=JID_3662.chk
%mem=8GB
%nprocshared=4
# B3LYP/6-311++G(d,p) empiricaldispersion=gd3bj scf=xqc pop=npa geom=check

CID_82602224_JID_3662_Energie_anion

-1 2
