%chk=JID_2178.chk
%mem=8GB
%nprocshared=4
# opt freq B3LYP/6-31G(d) empiricaldispersion=gd3bj scf=xqc

CID_89088517_JID_2178_neutraal

0 1
C          0.94252        0.05129        0.06376
C          0.86202       -0.58349        1.47758
C          0.58574        0.58380        2.47229
C         -0.94099        0.24148        2.25383
C         -0.46153       -1.23476        2.10649
C         -0.67673       -2.32704        1.06364
C          0.76621       -2.88279        0.82234
C          1.71270       -1.84562        1.50321
C          1.00586       -4.30769        1.33038
C          0.24643       -5.29619        0.55021
N         -0.35312       -6.07689       -0.06410
C         -0.54731       -1.86123        3.52191
H          0.20195        0.84133       -0.09507
H          0.79959       -0.67961       -0.73719
H          1.93128        0.50262       -0.07962
H          0.97451        0.42860        3.48424
H          0.87631        1.59061        2.15636
H         -1.58756        0.47667        3.10506
H         -1.40573        0.66659        1.35788
H         -1.07806       -1.90612        0.13401
H         -1.38064       -3.09736        1.39527
H          0.94835       -2.87618       -0.26130
H          1.97699       -2.13893        2.52540
H          2.65040       -1.74020        0.94686
H          2.07413       -4.54289        1.25023
H          0.74372       -4.40206        2.38800
H          0.06366       -2.75994        3.62367
H         -0.23140       -1.17670        4.31539
H         -1.58426       -2.14521        3.73649

--Link1--
%chk=JID_2178.chk
%mem=8GB
%nprocshared=4
# B3LYP/6-311++G(d,p) empiricaldispersion=gd3bj scf=xqc pop=npa geom=check

CID_89088517_JID_2178_Energie_neutraal

0 1

--Link1--
%chk=JID_2178.chk
%mem=8GB
%nprocshared=4
# B3LYP/6-311++G(d,p) empiricaldispersion=gd3bj scf=xqc pop=npa geom=check

CID_89088517_JID_2178_Energie_kation

1 2

--Link1--
%chk=JID_2178.chk
%mem=8GB
%nprocshared=4
# B3LYP/6-311++G(d,p) empiricaldispersion=gd3bj scf=xqc pop=npa geom=check

CID_89088517_JID_2178_Energie_anion

-1 2
