%chk=JID_787.chk
%mem=8GB
%nprocshared=4
# opt freq B3LYP/6-31G(d) empiricaldispersion=gd3bj scf=xqc

CID_88708722_JID_787_neutraal

0 1
C          0.65300       -1.21900        0.25200
C         -0.88907       -1.27065        0.22803
N         -1.51345       -0.08319        0.85274
C         -0.96773        1.12846        0.20722
C          0.57481        1.18112        0.22623
N          1.20087       -0.00626       -0.38347
S         -1.77167       -0.07011        2.50987
C         -3.12933       -1.17427        2.69532
O         -3.67766       -1.78808        1.79233
N         -3.49458       -1.27923        3.99755
H          1.01869       -1.28334        1.28415
H          1.04982       -2.09424       -0.27447
H         -1.22712       -2.19782        0.70643
H         -1.23057       -1.33543       -0.81379
H         -1.31368        1.15360       -0.83495
H         -1.37328        2.03547        0.67325
H          0.93756        1.29278        1.25534
H          0.91092        2.06891       -0.32106
H          0.94714       -0.02617       -1.37180
H         -3.01468       -0.75430        4.71215
H         -4.26548       -1.88546        4.23479

--Link1--
%chk=JID_787.chk
%mem=8GB
%nprocshared=4
# B3LYP/6-311++G(d,p) empiricaldispersion=gd3bj scf=xqc pop=npa geom=check

CID_88708722_JID_787_Energie_neutraal

0 1

--Link1--
%chk=JID_787.chk
%mem=8GB
%nprocshared=4
# B3LYP/6-311++G(d,p) empiricaldispersion=gd3bj scf=xqc pop=npa geom=check

CID_88708722_JID_787_Energie_kation

1 2

--Link1--
%chk=JID_787.chk
%mem=8GB
%nprocshared=4
# B3LYP/6-311++G(d,p) empiricaldispersion=gd3bj scf=xqc pop=npa geom=check

CID_88708722_JID_787_Energie_anion

-1 2
