%chk=JID_7061.chk
%mem=8GB
%nprocshared=4
# opt freq B3LYP/6-31G(d) empiricaldispersion=gd3bj scf=xqc

CID_100940870_JID_7061_neutraal

0 1
C          1.07328       -0.01097        0.06716
C          0.46416        0.24556        1.43534
C          0.80571        1.62204        2.01342
C          0.41103        2.81467        1.14411
C         -1.03085        2.81072        0.70130
O         -1.38569        3.02288       -0.45074
O         -1.87416        2.58617        1.74790
C         -3.26045        2.53900        1.37057
C         -4.12902        2.20022        2.56200
C         -3.71280        0.92790        3.25076
O         -3.60041       -0.15456        2.68556
C         -3.50138        1.15202        4.74875
N         -3.72274        2.58472        4.83103
C         -4.02965        3.22668        3.65107
O         -4.21709        4.42551        3.54443
C         -2.08158        0.79168        5.15820
C         -4.54985        0.39247        5.55014
H          0.64716        0.64943       -0.69367
H          0.87722       -1.04226       -0.24360
H          2.15771        0.13626        0.08611
H         -0.62253        0.11726        1.37687
H          0.82780       -0.52014        2.13130
H          0.32411        1.71340        2.99316
H          1.88566        1.67288        2.20053
H          0.59508        3.75036        1.68397
H          1.03922        2.83844        0.24620
H         -3.54887        3.51461        0.96094
H         -3.39047        1.77267        0.59620
H         -5.18331        2.11043        2.27905
H         -3.61777        3.12788        5.68069
H         -1.89943        1.04091        6.20945
H         -1.88669       -0.27754        5.02088
H         -1.34537        1.33885        4.56076
H         -5.56406        0.63042        5.20818
H         -4.41720       -0.69046        5.44970
H         -4.49317        0.64692        6.61430

--Link1--
%chk=JID_7061.chk
%mem=8GB
%nprocshared=4
# B3LYP/6-311++G(d,p) empiricaldispersion=gd3bj scf=xqc pop=npa geom=check

CID_100940870_JID_7061_Energie_neutraal

0 1

--Link1--
%chk=JID_7061.chk
%mem=8GB
%nprocshared=4
# B3LYP/6-311++G(d,p) empiricaldispersion=gd3bj scf=xqc pop=npa geom=check

CID_100940870_JID_7061_Energie_kation

1 2

--Link1--
%chk=JID_7061.chk
%mem=8GB
%nprocshared=4
# B3LYP/6-311++G(d,p) empiricaldispersion=gd3bj scf=xqc pop=npa geom=check

CID_100940870_JID_7061_Energie_anion

-1 2
