%chk=JID_7409.chk
%mem=8GB
%nprocshared=4
# opt freq B3LYP/6-31G(d) empiricaldispersion=gd3bj scf=xqc

CID_15416343_JID_7409_neutraal

0 1
C          0.93646       -0.07610       -0.01309
C          0.90635        1.44143        0.12196
C          1.17146        2.18941       -1.19042
C          0.30848        1.74948       -2.37951
C         -1.21606        1.91590       -2.17429
C         -1.67918        3.40356       -2.20958
C         -1.45626        4.10816       -3.55238
C         -3.14319        3.57579       -1.78835
N         -1.84260        1.01871       -3.15769
O         -3.21715        0.76750       -2.73828
C         -3.30741       -0.51291       -2.09195
C         -3.20032       -1.68220       -3.04070
C         -4.33728       -2.19681       -3.67719
C         -4.23047       -3.29563       -4.53215
C         -2.98766       -3.88245       -4.76688
C         -1.84794       -3.36850       -4.15229
C         -1.95352       -2.27329       -3.29499
H          0.09756       -0.44646       -0.60912
H          0.86540       -0.54028        0.97593
H          1.86969       -0.41012       -0.47722
H         -0.05694        1.74827        0.54426
H          1.66827        1.74500        0.85024
H          1.05506        3.26511       -1.01746
H          2.22367        2.03979       -1.46473
H          0.63911        2.28930       -3.27409
H          0.54232        0.69622       -2.58672
H         -1.45909        1.52295       -1.18095
H         -1.08531        3.94590       -1.46261
H         -2.02929        3.64069       -4.35889
H         -1.77367        5.15542       -3.49018
H         -0.40092        4.11354       -3.83743
H         -3.34836        3.04550       -0.85276
H         -3.36890        4.63527       -1.62235
H         -3.83515        3.21415       -2.55500
H         -1.97664        1.48102       -4.05663
H         -2.55796       -0.58977       -1.29355
H         -4.27992       -0.54573       -1.58673
H         -5.31256       -1.74760       -3.50604
H         -5.11793       -3.69403       -5.01660
H         -2.90606       -4.73670       -5.43337
H         -0.87629       -3.81654       -4.34159
H         -1.05594       -1.87184       -2.82827

--Link1--
%chk=JID_7409.chk
%mem=8GB
%nprocshared=4
# B3LYP/6-311++G(d,p) empiricaldispersion=gd3bj scf=xqc pop=npa geom=check

CID_15416343_JID_7409_Energie_neutraal

0 1

--Link1--
%chk=JID_7409.chk
%mem=8GB
%nprocshared=4
# B3LYP/6-311++G(d,p) empiricaldispersion=gd3bj scf=xqc pop=npa geom=check

CID_15416343_JID_7409_Energie_kation

1 2

--Link1--
%chk=JID_7409.chk
%mem=8GB
%nprocshared=4
# B3LYP/6-311++G(d,p) empiricaldispersion=gd3bj scf=xqc pop=npa geom=check

CID_15416343_JID_7409_Energie_anion

-1 2
