%chk=JID_5389.chk
%mem=8GB
%nprocshared=4
# opt freq B3LYP/6-31G(d) empiricaldispersion=gd3bj scf=xqc

CID_83820601_JID_5389_neutraal

0 1
C         -2.13300       -0.01500        0.07600
N         -0.77118       -0.04203       -0.43555
C          0.03460       -1.10263        0.16017
C          1.42102       -0.71383       -0.31579
C          1.43834        0.81647       -0.18524
C         -0.04951        1.21012       -0.18788
C          2.25184        1.50696       -1.29334
C          2.31195        2.98906       -1.09962
C          2.86217        3.81250       -0.13648
C          2.55450        5.13970       -0.51965
C          1.83233        5.04407       -1.68510
O          1.67580        3.74429       -2.04167
C          3.67500        0.98768       -1.38338
O          4.29421        0.75596       -2.41097
O          4.28560        0.81763       -0.19061
H         -2.64568       -0.95522       -0.15442
H         -2.16867        0.13782        1.16063
H         -2.70532        0.78663       -0.40336
H         -0.01334       -1.09222        1.25635
H         -0.25189       -2.09502       -0.20109
H          1.56096       -1.02457       -1.35907
H          2.20501       -1.18548        0.28516
H          1.85380        1.06810        0.80121
H         -0.30368        1.94894       -0.95427
H         -0.30432        1.63710        0.79096
H          1.78148        1.28338       -2.26080
H          3.41863        3.49157        0.73387
H          2.82427        6.05409       -0.01051
H          1.38056        5.76776       -2.34922
H          5.18672        0.51930       -0.43828

--Link1--
%chk=JID_5389.chk
%mem=8GB
%nprocshared=4
# B3LYP/6-311++G(d,p) empiricaldispersion=gd3bj scf=xqc pop=npa geom=check

CID_83820601_JID_5389_Energie_neutraal

0 1

--Link1--
%chk=JID_5389.chk
%mem=8GB
%nprocshared=4
# B3LYP/6-311++G(d,p) empiricaldispersion=gd3bj scf=xqc pop=npa geom=check

CID_83820601_JID_5389_Energie_kation

1 2

--Link1--
%chk=JID_5389.chk
%mem=8GB
%nprocshared=4
# B3LYP/6-311++G(d,p) empiricaldispersion=gd3bj scf=xqc pop=npa geom=check

CID_83820601_JID_5389_Energie_anion

-1 2
