%chk=JID_10276.chk
%mem=8GB
%nprocshared=4
# opt freq B3LYP/6-31G(d) empiricaldispersion=gd3bj scf=xqc

CID_97482300_JID_10276_neutraal

0 1
C          0.93644        0.06347        0.04395
N          0.78712        0.74063        1.32484
C          0.46910        2.16141        1.18008
C          1.69173        3.03531        0.90444
C          2.74216        2.85453        1.99509
C          3.14588        1.38017        2.16053
C          1.87523        0.49554        2.28063
C          4.04685        1.21063        3.39537
C          4.79371       -0.09189        3.14571
N          4.87880       -0.21178        1.67158
C          4.11021        0.90658        1.05806
S          6.43759       -0.48585        1.05683
O          7.19360        0.74565        1.16122
O          6.93196       -1.71860        1.63787
C          6.35587       -0.80917       -0.65730
C          7.20125       -1.64049       -1.36742
N          6.76310       -1.57186       -2.65792
C          5.69656       -0.72069       -2.69898
N          5.41824       -0.23715       -1.50866
C          7.33226       -2.27617       -3.77861
H         -0.02345        0.05841       -0.48527
H          1.21681       -0.98658        0.18077
H          1.66667        0.53672       -0.61663
H         -0.28139        2.31173        0.39421
H         -0.00796        2.50252        2.10812
H          2.12140        2.79838       -0.07568
H          1.38475        4.08700        0.86800
H          2.33344        3.22929        2.94312
H          3.61532        3.47829        1.76829
H          1.44360        0.66598        3.27709
H          2.13552       -0.57048        2.27523
H          4.77119        2.03384        3.45566
H          3.49521        1.19106        4.34075
H          4.23387       -0.95035        3.53151
H          5.77202       -0.07631        3.63531
H          3.59840        0.55318        0.16586
H          4.78841        1.71796        0.76939
H          8.03955       -2.24796       -1.05409
H          5.16287       -0.48855       -3.61206
H          8.41226       -2.10806       -3.78446
H          7.11116       -3.34014       -3.66279
H          6.89496       -1.90098       -4.70730

--Link1--
%chk=JID_10276.chk
%mem=8GB
%nprocshared=4
# B3LYP/6-311++G(d,p) empiricaldispersion=gd3bj scf=xqc pop=npa geom=check

CID_97482300_JID_10276_Energie_neutraal

0 1

--Link1--
%chk=JID_10276.chk
%mem=8GB
%nprocshared=4
# B3LYP/6-311++G(d,p) empiricaldispersion=gd3bj scf=xqc pop=npa geom=check

CID_97482300_JID_10276_Energie_kation

1 2

--Link1--
%chk=JID_10276.chk
%mem=8GB
%nprocshared=4
# B3LYP/6-311++G(d,p) empiricaldispersion=gd3bj scf=xqc pop=npa geom=check

CID_97482300_JID_10276_Energie_anion

-1 2
