%chk=JID_9314.chk
%mem=8GB
%nprocshared=4
# opt freq B3LYP/6-31G(d) empiricaldispersion=gd3bj scf=xqc

CID_114195577_JID_9314_neutraal

0 1
C          0.92783       -0.02967       -0.06254
C         -0.22387        0.54107       -0.87619
C          0.26261        1.48757       -1.92743
N          0.35713        2.79253       -1.73766
C          1.04074        3.28412       -2.81077
C          1.39275        2.26991       -3.66409
N          0.82488        1.12471       -3.14766
C          0.96243       -0.16236       -3.70975
C          2.22750       -0.58163       -4.09465
N          2.49469       -1.81743       -4.57663
C          1.47064       -2.67377       -4.70601
C          0.16898       -2.33906       -4.37816
C         -0.09573       -1.05645       -3.88237
C         -1.50871       -0.63728       -3.74830
O         -1.91667        0.46548       -4.06441
O         -2.23403       -1.65105       -3.21676
C         -3.63435       -1.38485       -3.03965
C         -3.87814       -0.69414       -1.71103
N          1.78104       -3.94533       -5.17267
H          1.60606       -0.61963       -0.68789
H          0.54495       -0.68214        0.72864
H          1.51359        0.76733        0.40843
H         -0.80989       -0.27718       -1.29287
H         -0.89697        1.08489       -0.20197
H          1.25814        4.34022       -2.90518
H          1.92741        2.27992       -4.60321
H          3.10555        0.05192       -3.98972
H         -0.62821       -3.05938       -4.53087
H         -4.03518       -0.79970       -3.87542
H         -4.14588       -2.35286       -3.04997
H         -3.39452        0.28733       -1.68392
H         -4.94907       -0.55820       -1.53581
H         -3.45622       -1.28092       -0.88854
H          2.77667       -3.95455       -5.38402
H          1.22687       -4.20419       -5.98061

--Link1--
%chk=JID_9314.chk
%mem=8GB
%nprocshared=4
# B3LYP/6-311++G(d,p) empiricaldispersion=gd3bj scf=xqc pop=npa geom=check

CID_114195577_JID_9314_Energie_neutraal

0 1

--Link1--
%chk=JID_9314.chk
%mem=8GB
%nprocshared=4
# B3LYP/6-311++G(d,p) empiricaldispersion=gd3bj scf=xqc pop=npa geom=check

CID_114195577_JID_9314_Energie_kation

1 2

--Link1--
%chk=JID_9314.chk
%mem=8GB
%nprocshared=4
# B3LYP/6-311++G(d,p) empiricaldispersion=gd3bj scf=xqc pop=npa geom=check

CID_114195577_JID_9314_Energie_anion

-1 2
