%chk=JID_1560.chk
%mem=8GB
%nprocshared=4
# opt freq B3LYP/6-31G(d) empiricaldispersion=gd3bj scf=xqc

CID_146644146_JID_1560_neutraal

0 1
C          0.95223        0.03579        0.08023
C          0.39176       -0.94169        0.80686
C         -1.09524       -1.22789        0.55506
N         -1.74560       -2.35058        0.65352
C         -1.15402       -3.54511        0.94300
O          0.02548       -3.85002        0.81934
C         -2.11039       -4.55700        1.47469
C         -3.26623       -5.04041        0.62837
C         -2.12087       -5.96373        0.92063
N         -1.91606       -0.17035        0.22090
N          1.07603       -1.63555        1.78537
H          0.40474        0.56863       -0.69033
H          1.99045        0.31501        0.21944
H         -2.28495       -4.45784        2.54050
H         -4.21179       -5.22357        1.12455
H         -3.36132       -4.65187       -0.37978
H         -1.43633       -6.20063        0.11328
H         -2.28344       -6.77785        1.61705
H         -1.66659        0.70613        0.66506
H         -2.89263       -0.40944        0.35302
H          2.08127       -1.51078        1.70642
H          0.87703       -2.63885        1.69317

--Link1--
%chk=JID_1560.chk
%mem=8GB
%nprocshared=4
# B3LYP/6-311++G(d,p) empiricaldispersion=gd3bj scf=xqc pop=npa geom=check

CID_146644146_JID_1560_Energie_neutraal

0 1

--Link1--
%chk=JID_1560.chk
%mem=8GB
%nprocshared=4
# B3LYP/6-311++G(d,p) empiricaldispersion=gd3bj scf=xqc pop=npa geom=check

CID_146644146_JID_1560_Energie_kation

1 2

--Link1--
%chk=JID_1560.chk
%mem=8GB
%nprocshared=4
# B3LYP/6-311++G(d,p) empiricaldispersion=gd3bj scf=xqc pop=npa geom=check

CID_146644146_JID_1560_Energie_anion

-1 2
