%chk=JID_10099.chk
%mem=8GB
%nprocshared=4
# opt freq B3LYP/6-31G(d) empiricaldispersion=gd3bj scf=xqc

CID_47113989_JID_10099_neutraal

0 1
C          1.07968        0.00054       -0.06043
C          0.43851        1.38076        0.01370
C          0.99540        2.37394       -1.03322
C          0.72898        1.94241       -2.49654
N         -0.68467        1.87177       -2.84325
C         -1.43067        2.81123       -3.51527
O         -2.64829        2.82908       -3.34401
C         -0.75409        3.72030       -4.43804
C         -1.04045        5.07479       -4.53131
S         -0.09000        5.85735       -5.72292
C          0.67907        4.40398       -6.17389
C          0.22591        3.34235       -5.42244
C          1.68810        4.40250       -7.26937
C         -2.02672        5.88345       -3.75306
C          0.56726        3.81931       -0.79468
C          1.42892        4.85920       -1.18426
C          1.07388        6.19603       -0.99306
C         -0.14787        6.51601       -0.40868
C         -1.01796        5.49940       -0.02505
C         -0.66722        4.16138       -0.22300
H          0.81277       -0.51802       -0.98556
H          0.73291       -0.61767        0.77409
H          2.17035        0.06792        0.00019
H         -0.64669        1.26553       -0.08542
H          0.61895        1.78141        1.01980
H          2.08755        2.35779       -0.89947
H          1.25539        2.62709       -3.16455
H          1.14048        0.94521       -2.68036
H         -1.27288        1.28098       -2.27061
H          0.57091        2.32528       -5.56720
H          1.24189        4.74245       -8.20973
H          2.52986        5.05826       -7.02368
H          2.08588        3.39533       -7.43289
H         -1.63121        6.87717       -3.51683
H         -2.94946        6.00708       -4.32939
H         -2.28277        5.40393       -2.80475
H          2.38848        4.63550       -1.64563
H          1.75140        6.98717       -1.30318
H         -0.42559        7.55584       -0.25977
H         -1.97873        5.74591        0.41985
H         -1.38314        3.39784        0.06919

--Link1--
%chk=JID_10099.chk
%mem=8GB
%nprocshared=4
# B3LYP/6-311++G(d,p) empiricaldispersion=gd3bj scf=xqc pop=npa geom=check

CID_47113989_JID_10099_Energie_neutraal

0 1

--Link1--
%chk=JID_10099.chk
%mem=8GB
%nprocshared=4
# B3LYP/6-311++G(d,p) empiricaldispersion=gd3bj scf=xqc pop=npa geom=check

CID_47113989_JID_10099_Energie_kation

1 2

--Link1--
%chk=JID_10099.chk
%mem=8GB
%nprocshared=4
# B3LYP/6-311++G(d,p) empiricaldispersion=gd3bj scf=xqc pop=npa geom=check

CID_47113989_JID_10099_Energie_anion

-1 2
