%chk=JID_3418.chk
%mem=8GB
%nprocshared=4
# opt freq B3LYP/6-31G(d) empiricaldispersion=gd3bj scf=xqc

CID_116092186_JID_3418_neutraal

0 1
C          0.95530        0.08763        0.01796
C          0.42762        0.98307       -1.10686
C          0.90293        0.45759       -2.47365
O          0.49978       -0.90303       -2.64510
C          0.88542       -1.40323       -3.91856
C         -1.11262        1.11461       -1.08747
C         -1.72620        1.49838        0.27997
N         -1.31646        2.86107        0.66387
C         -1.84822        3.24332        1.98398
C         -1.08149        2.60238        3.15266
O          0.32072        2.83587        2.97202
C          1.08753        2.25009        4.01550
O         -1.48784        2.13794       -2.02744
H          0.44780       -0.88259        0.03276
H          0.81812        0.55794        0.99636
H          2.02923       -0.09287       -0.10088
H          0.86916        1.98174       -0.99236
H          0.49789        1.07056       -3.28722
H          1.99761        0.50955       -2.52345
H          0.40552       -0.82963       -4.71729
H          1.97347       -1.36861       -4.03018
H          0.55997       -2.44429       -3.99231
H         -1.57621        0.18024       -1.42382
H         -2.81814        1.49337        0.17377
H         -1.46351        0.75632        1.03918
H         -0.29474        2.88658        0.76067
H         -1.73082        4.33075        2.05962
H         -2.92095        3.03350        2.05940
H         -1.40817        3.05474        4.09583
H         -1.27065        1.52416        3.19499
H          0.80746        2.67677        4.98327
H          0.95087        1.16452        4.02683
H          2.14293        2.46676        3.82973
H         -1.52304        2.96046       -1.49455

--Link1--
%chk=JID_3418.chk
%mem=8GB
%nprocshared=4
# B3LYP/6-311++G(d,p) empiricaldispersion=gd3bj scf=xqc pop=npa geom=check

CID_116092186_JID_3418_Energie_neutraal

0 1

--Link1--
%chk=JID_3418.chk
%mem=8GB
%nprocshared=4
# B3LYP/6-311++G(d,p) empiricaldispersion=gd3bj scf=xqc pop=npa geom=check

CID_116092186_JID_3418_Energie_kation

1 2

--Link1--
%chk=JID_3418.chk
%mem=8GB
%nprocshared=4
# B3LYP/6-311++G(d,p) empiricaldispersion=gd3bj scf=xqc pop=npa geom=check

CID_116092186_JID_3418_Energie_anion

-1 2
