%chk=JID_7097.chk
%mem=8GB
%nprocshared=4
# opt freq B3LYP/6-31G(d) empiricaldispersion=gd3bj scf=xqc

CID_21048564_JID_7097_neutraal

0 1
C          0.94421        0.08146        0.01589
C          0.31753       -0.68722       -1.15683
C          0.67972       -2.17657       -1.01655
C         -1.21160       -0.54936       -1.12152
C          0.84856       -0.12377       -2.48047
N          1.50042       -0.85316       -3.33334
S          1.92974        0.02492       -4.64412
O          3.36997        0.17230       -4.65991
O          1.19527       -0.46387       -5.79292
C          1.19484        1.45746       -4.03024
C          0.63396        1.29011       -2.83466
C          1.33315        2.64576       -4.85286
C          0.72311        2.73675       -6.11114
C          0.84689        3.89848       -6.87659
C          1.57453        4.98204       -6.38963
C          2.17797        4.90701       -5.13635
C          2.05488        3.74643       -4.36911
H          0.63239       -0.34034        0.97805
H          0.65396        1.13774        0.01271
H          2.03879        0.04453       -0.03004
H          0.30449       -2.58955       -0.07327
H          0.25056       -2.77021       -1.83212
H          1.76551       -2.32640       -1.03547
H         -1.52651        0.49967       -1.14332
H         -1.67104       -1.04480       -1.98471
H         -1.62933       -0.99797       -0.21317
H          0.13046        2.02302       -2.23017
H          0.14397        1.90692       -6.51429
H          0.37621        3.95523       -7.85521
H          1.67379        5.88371       -6.98893
H          2.74989        5.75082       -4.75821
H          2.54329        3.70776       -3.39737

--Link1--
%chk=JID_7097.chk
%mem=8GB
%nprocshared=4
# B3LYP/6-311++G(d,p) empiricaldispersion=gd3bj scf=xqc pop=npa geom=check

CID_21048564_JID_7097_Energie_neutraal

0 1

--Link1--
%chk=JID_7097.chk
%mem=8GB
%nprocshared=4
# B3LYP/6-311++G(d,p) empiricaldispersion=gd3bj scf=xqc pop=npa geom=check

CID_21048564_JID_7097_Energie_kation

1 2

--Link1--
%chk=JID_7097.chk
%mem=8GB
%nprocshared=4
# B3LYP/6-311++G(d,p) empiricaldispersion=gd3bj scf=xqc pop=npa geom=check

CID_21048564_JID_7097_Energie_anion

-1 2
