%chk=JID_7597.chk
%mem=8GB
%nprocshared=4
# opt freq B3LYP/6-31G(d) empiricaldispersion=gd3bj scf=xqc

CID_63996185_JID_7597_neutraal

0 1
C          0.96770        0.08952        0.03072
C         -0.10879       -0.98957        0.04945
C         -0.01514       -1.97558        1.23231
C         -0.14758       -1.38678        2.61183
C         -1.36939       -1.64856        3.45753
C         -0.06921       -2.31133        3.80324
N         -1.47557       -0.49561       -0.21759
C         -2.19644        0.26103        0.70646
C         -3.47970       -0.15587        1.08182
C         -4.25241        0.56777        2.00882
C         -3.72312        1.71552        2.62664
C         -2.48771        2.18631        2.17072
C         -1.73403        1.46333        1.23635
N         -4.45736        2.52387        3.52076
C         -5.61713        0.03726        2.28410
O         -5.89183       -1.14941        2.15590
N         -6.57654        0.94518        2.63791
H          0.98750        0.69378        0.93975
H          0.83170        0.76385       -0.82166
H          1.95846       -0.36943       -0.06297
H          0.11405       -1.60328       -0.83563
H         -0.76230       -2.76813        1.09428
H          0.96501       -2.46786        1.18149
H          0.35598       -0.43479        2.72284
H         -1.72098       -0.84614        4.09633
H         -2.16378       -2.26674        3.05444
H          0.01282       -3.37890        3.63295
H          0.45874       -1.96229        4.68351
H         -2.04744       -1.26805       -0.55782
H         -3.89946       -1.06212        0.64886
H         -2.08793        3.12699        2.54148
H         -0.79535        1.88987        0.90178
H         -5.09000        1.96516        4.09607
H         -3.86238        3.10847        4.10303
H         -6.40255        1.93660        2.50420
H         -7.53344        0.61912        2.65454

--Link1--
%chk=JID_7597.chk
%mem=8GB
%nprocshared=4
# B3LYP/6-311++G(d,p) empiricaldispersion=gd3bj scf=xqc pop=npa geom=check

CID_63996185_JID_7597_Energie_neutraal

0 1

--Link1--
%chk=JID_7597.chk
%mem=8GB
%nprocshared=4
# B3LYP/6-311++G(d,p) empiricaldispersion=gd3bj scf=xqc pop=npa geom=check

CID_63996185_JID_7597_Energie_kation

1 2

--Link1--
%chk=JID_7597.chk
%mem=8GB
%nprocshared=4
# B3LYP/6-311++G(d,p) empiricaldispersion=gd3bj scf=xqc pop=npa geom=check

CID_63996185_JID_7597_Energie_anion

-1 2
