%chk=JID_8695.chk
%mem=8GB
%nprocshared=4
# opt freq B3LYP/6-31G(d) empiricaldispersion=gd3bj scf=xqc

CID_80424800_JID_8695_neutraal

0 1
C          1.00193       -0.09869       -0.01605
C         -0.18548       -0.97921        0.37283
C          0.31531       -2.14405        1.22620
O         -1.06581       -0.12363        1.10358
C         -2.32227       -0.53384        1.44982
C         -2.94733       -1.68052        0.94983
C         -4.22299       -2.03903        1.38869
C         -4.88843       -1.24603        2.31564
C         -4.28866       -0.08023        2.79259
C         -3.00039        0.29213        2.37160
C         -2.39755        1.61115        2.82402
C         -2.54161        1.98251        4.30789
C         -1.91079        1.00484        5.31953
C         -0.40087        1.08127        5.48590
C          0.51817        0.53206        4.42218
C          0.51600        2.00524        4.71528
N         -2.51628        1.36227        6.61764
C         -2.57175        0.25366        7.55641
H          1.48472        0.32655        0.87133
H          0.66567        0.74725       -0.62579
H          1.74714       -0.66201       -0.58609
H         -0.66109       -1.33346       -0.54895
H          0.74840       -1.78517        2.16556
H         -0.49535       -2.82555        1.49847
H          1.07315       -2.72527        0.69135
H         -2.46930       -2.31630        0.21360
H         -4.69790       -2.93679        1.00094
H         -5.88247       -1.52305        2.65726
H         -4.84541        0.53913        3.49090
H         -1.34259        1.67358        2.54945
H         -2.88947        2.39484        2.23155
H         -2.12732        2.98923        4.45336
H         -3.61456        2.08330        4.52116
H         -2.19341       -0.02131        5.05740
H         -0.08897        0.83717        6.49776
H          1.37468       -0.04968        4.74530
H          0.09221        0.18725        3.49034
H          0.12375        2.67204        3.95951
H          1.37261        2.41568        5.24002
H         -2.02411        2.15783        7.02069
H         -1.57970       -0.11474        7.83197
H         -3.06752        0.58501        8.47433
H         -3.16002       -0.57618        7.15187

--Link1--
%chk=JID_8695.chk
%mem=8GB
%nprocshared=4
# B3LYP/6-311++G(d,p) empiricaldispersion=gd3bj scf=xqc pop=npa geom=check

CID_80424800_JID_8695_Energie_neutraal

0 1

--Link1--
%chk=JID_8695.chk
%mem=8GB
%nprocshared=4
# B3LYP/6-311++G(d,p) empiricaldispersion=gd3bj scf=xqc pop=npa geom=check

CID_80424800_JID_8695_Energie_kation

1 2

--Link1--
%chk=JID_8695.chk
%mem=8GB
%nprocshared=4
# B3LYP/6-311++G(d,p) empiricaldispersion=gd3bj scf=xqc pop=npa geom=check

CID_80424800_JID_8695_Energie_anion

-1 2
