%chk=JID_3360.chk
%mem=8GB
%nprocshared=4
# opt freq B3LYP/6-31G(d) empiricaldispersion=gd3bj scf=xqc

CID_131177043_JID_3360_neutraal

0 1
C          2.49600       -0.00700       -0.12600
C          0.97234        0.03841       -0.01689
C          0.43390        1.32888       -0.63254
C         -1.09202        1.41240       -0.71878
C         -1.88527        0.09425       -0.89205
C         -1.14986       -1.20214       -0.50277
C          0.35657       -1.18707       -0.69011
N         -2.81115       -0.02109       -2.04523
C         -3.88928        0.97582       -1.97474
C         -2.34005       -0.08540       -3.44376
C         -0.90611        0.28841       -3.78739
O         -0.73940       -0.95476       -4.53271
C         -1.90815       -1.50043       -3.85038
H          2.82219       -0.00524       -1.17172
H          2.94689        0.85840        0.37111
H          2.89290       -0.90984        0.35014
H          0.70966        0.02511        1.04925
H          0.79689        2.18735       -0.05181
H          0.86366        1.46798       -1.63066
H         -1.35186        2.13649       -1.50000
H         -1.44064        1.88114        0.21316
H         -2.60428        0.15091       -0.05749
H         -1.58757       -2.07720       -0.99232
H         -1.33626       -1.38110        0.56730
H          0.61464       -1.22303       -1.75277
H          0.77341       -2.09984       -0.24601
H         -3.53378        1.98568       -2.20596
H         -4.69009        0.72711       -2.68137
H         -4.36059        0.99110       -0.98573
H         -3.04995        0.31834       -4.17975
H         -0.80668        1.16100       -4.43998
H         -0.15559        0.34086       -3.01171
H         -1.59910       -2.21077       -3.08289
H         -2.58199       -2.00366       -4.55026

--Link1--
%chk=JID_3360.chk
%mem=8GB
%nprocshared=4
# B3LYP/6-311++G(d,p) empiricaldispersion=gd3bj scf=xqc pop=npa geom=check

CID_131177043_JID_3360_Energie_neutraal

0 1

--Link1--
%chk=JID_3360.chk
%mem=8GB
%nprocshared=4
# B3LYP/6-311++G(d,p) empiricaldispersion=gd3bj scf=xqc pop=npa geom=check

CID_131177043_JID_3360_Energie_kation

1 2

--Link1--
%chk=JID_3360.chk
%mem=8GB
%nprocshared=4
# B3LYP/6-311++G(d,p) empiricaldispersion=gd3bj scf=xqc pop=npa geom=check

CID_131177043_JID_3360_Energie_anion

-1 2
