%chk=JID_4253.chk
%mem=8GB
%nprocshared=4
# opt freq B3LYP/6-31G(d) empiricaldispersion=gd3bj scf=xqc

CID_152618059_JID_4253_neutraal

0 1
C          0.90451       -0.01162       -0.02732
C          0.87630       -1.41657       -0.60252
C          1.22307       -2.51187        0.41243
C          0.32602       -2.59736        1.65723
C         -1.15195       -2.87803        1.36505
C         -1.71106       -4.26565        1.68210
C         -1.14432       -5.52607        1.01641
C         -1.74212       -6.67033        1.84532
C         -1.76183       -6.17707        3.29391
C         -1.72383       -4.67515        3.13788
O         -1.75508       -3.89820        4.08273
N          0.32369       -5.55897        0.92805
N          1.01318       -6.09818        1.81216
N          1.64902       -6.59001        2.61807
H          0.11434        0.13376        0.71510
H          0.74928        0.72387       -0.82328
H          1.86882        0.20003        0.44524
H         -0.10268       -1.60316       -1.05550
H          1.60354       -1.46968       -1.42211
H          1.21478       -3.46803       -0.11895
H          2.25648       -2.35939        0.74874
H          0.73299       -3.33856        2.35272
H          0.39782       -1.64234        2.19286
H         -1.73061       -2.15874        1.96197
H         -1.39315       -2.64846        0.32299
H         -2.77874       -4.22192        1.41443
H         -1.51542       -5.59021       -0.01316
H         -1.20656       -7.61895        1.73885
H         -2.77524       -6.84668        1.51806
H         -0.88547       -6.51004        3.85356
H         -2.67716       -6.48833        3.80351

--Link1--
%chk=JID_4253.chk
%mem=8GB
%nprocshared=4
# B3LYP/6-311++G(d,p) empiricaldispersion=gd3bj scf=xqc pop=npa geom=check

CID_152618059_JID_4253_Energie_neutraal

0 1

--Link1--
%chk=JID_4253.chk
%mem=8GB
%nprocshared=4
# B3LYP/6-311++G(d,p) empiricaldispersion=gd3bj scf=xqc pop=npa geom=check

CID_152618059_JID_4253_Energie_kation

1 2

--Link1--
%chk=JID_4253.chk
%mem=8GB
%nprocshared=4
# B3LYP/6-311++G(d,p) empiricaldispersion=gd3bj scf=xqc pop=npa geom=check

CID_152618059_JID_4253_Energie_anion

-1 2
