%chk=JID_7381.chk
%mem=8GB
%nprocshared=4
# opt freq B3LYP/6-31G(d) empiricaldispersion=gd3bj scf=xqc

CID_82438842_JID_7381_neutraal

0 1
C          1.00212       -0.04506        0.08925
C          0.68910       -1.16774        1.07253
C          1.48059       -1.01645        2.36604
S         -1.11315       -1.39197        1.35045
C         -1.66141        0.26230        1.89178
C         -1.34036        0.61775        3.31372
N         -1.00036       -0.21749        4.26975
C         -0.81550        0.43517        5.48802
C         -1.03088        1.80763        5.41673
S         -1.43954        2.25800        3.80605
C         -0.90984        2.83899        6.40909
S         -2.24609        3.59708        7.05078
N          0.35070        3.18875        6.79850
C         -0.39492       -0.43433        6.67555
C          1.13138       -0.35689        6.86725
C         -1.09465       -0.02572        7.98453
C         -0.75995       -1.91777        6.41753
H          0.82574        0.94491        0.52112
H          0.41256       -0.13740       -0.82911
H          2.05932       -0.08209       -0.19780
H          1.00952       -2.10731        0.60651
H          1.33043       -0.03846        2.83128
H          1.22516       -1.79760        3.08992
H          2.55351       -1.10530        2.15966
H         -1.29025        1.01842        1.19451
H         -2.75334        0.26408        1.79107
H          1.17785        2.79551        6.36849
H          0.46859        3.94179        7.46529
H          1.45720        0.65478        7.12648
H          1.46453       -1.02280        7.67158
H          1.66164       -0.64619        5.95212
H         -2.18180        0.02643        7.85553
H         -0.88945       -0.74684        8.78473
H         -0.74922        0.94546        8.34973
H         -1.83605       -2.03638        6.24390
H         -0.23559       -2.31714        5.54112
H         -0.48809       -2.54981        7.27102

--Link1--
%chk=JID_7381.chk
%mem=8GB
%nprocshared=4
# B3LYP/6-311++G(d,p) empiricaldispersion=gd3bj scf=xqc pop=npa geom=check

CID_82438842_JID_7381_Energie_neutraal

0 1

--Link1--
%chk=JID_7381.chk
%mem=8GB
%nprocshared=4
# B3LYP/6-311++G(d,p) empiricaldispersion=gd3bj scf=xqc pop=npa geom=check

CID_82438842_JID_7381_Energie_kation

1 2

--Link1--
%chk=JID_7381.chk
%mem=8GB
%nprocshared=4
# B3LYP/6-311++G(d,p) empiricaldispersion=gd3bj scf=xqc pop=npa geom=check

CID_82438842_JID_7381_Energie_anion

-1 2
