%chk=JID_6801.chk
%mem=8GB
%nprocshared=4
# opt freq B3LYP/6-31G(d) empiricaldispersion=gd3bj scf=xqc

CID_61338387_JID_6801_neutraal

0 1
C          0.99891       -0.04980       -0.08671
C          0.67721       -0.99613        1.08004
C          1.49857       -0.56175        2.30565
C         -0.82032       -0.88025        1.41622
N          1.03740       -2.40324        0.78668
C          0.65550       -2.98672       -0.41145
O         -0.49088       -3.39233       -0.57115
C          1.83619       -3.22843       -1.36708
N          1.40384       -3.40861       -2.76762
C          2.46651       -4.01728       -3.59230
C          3.61396       -3.05648       -3.93848
O          3.12557       -1.87622       -4.58629
C          2.16507       -1.19105       -3.75515
C          0.98904       -2.13681       -3.40282
C          1.70000        0.06075       -4.52493
N          0.82223        0.94805       -3.75915
H          0.81744        0.99529        0.18903
H          0.37624       -0.26687       -0.95887
H          2.04727       -0.13779       -0.39174
H          1.27410        0.47084        2.59484
H          1.29321       -1.20536        3.16904
H          2.57372       -0.62802        2.10060
H         -1.44719       -1.15388        0.56090
H         -1.09127       -1.54325        2.24612
H         -1.08307        0.14309        1.70675
H          0.59230       -2.96024        1.50799
H          2.57725       -2.43109       -1.25412
H          2.30175       -4.15555       -1.00732
H          2.00144       -4.35133       -4.52907
H          2.86042       -4.92067       -3.11207
H          4.18636       -2.77102       -3.04858
H          4.30643       -3.54694       -4.63031
H          2.68226       -0.86102       -2.84572
H          0.46578       -2.40134       -4.33169
H          0.24575       -1.62965       -2.78073
H          2.58689        0.63019       -4.82916
H          1.20303       -0.23432       -5.45690
H          0.65831        1.79490       -4.30458
H         -0.09481        0.51414       -3.65066

--Link1--
%chk=JID_6801.chk
%mem=8GB
%nprocshared=4
# B3LYP/6-311++G(d,p) empiricaldispersion=gd3bj scf=xqc pop=npa geom=check

CID_61338387_JID_6801_Energie_neutraal

0 1

--Link1--
%chk=JID_6801.chk
%mem=8GB
%nprocshared=4
# B3LYP/6-311++G(d,p) empiricaldispersion=gd3bj scf=xqc pop=npa geom=check

CID_61338387_JID_6801_Energie_kation

1 2

--Link1--
%chk=JID_6801.chk
%mem=8GB
%nprocshared=4
# B3LYP/6-311++G(d,p) empiricaldispersion=gd3bj scf=xqc pop=npa geom=check

CID_61338387_JID_6801_Energie_anion

-1 2
