%chk=JID_10054.chk
%mem=8GB
%nprocshared=4
# opt freq B3LYP/6-31G(d) empiricaldispersion=gd3bj scf=xqc

CID_81040688_JID_10054_neutraal

0 1
C         -1.98500        0.74000       -0.09800
C         -1.82454       -0.77062        0.07085
C         -0.50501       -0.97386        0.82839
S          0.59798        0.25043        0.11876
O          1.39932       -0.36165       -0.92099
O          1.19374        1.01307        1.19489
C         -0.66379        1.24516       -0.66234
C          0.03023       -2.39555        0.70421
N          1.12715       -2.66667        1.62585
C          1.07345       -3.13196        2.91783
O          1.98169       -2.83403        3.68915
C         -0.04385       -3.96575        3.34849
C         -0.63014       -4.96693        2.59470
S         -1.88169       -5.78227        3.42701
C         -1.60347       -4.88288        4.84977
C         -0.60236       -3.95320        4.67570
C         -2.31912       -5.10606        6.06236
C         -2.97786       -5.35596        7.15947
C         -3.74580       -5.64730        8.43845
N         -3.77951       -7.08151        8.66497
H         -2.82275        0.99049       -0.75551
H         -2.17494        1.20129        0.87869
H         -1.78376       -1.24865       -0.91588
H         -2.66733       -1.20360        0.61913
H         -0.64642       -0.69642        1.88023
H         -0.49180        2.30121       -0.44507
H         -0.60683        1.07053       -1.74078
H         -0.79037       -3.08822        0.89392
H          0.40332       -2.60604       -0.30303
H          1.99023       -2.15383        1.46482
H         -0.37718       -5.27537        1.58933
H         -0.25725       -3.29181        5.46322
H         -3.25444       -5.14658        9.27833
H         -4.76304       -5.25313        8.34741
H         -4.36770       -7.27985        9.47109
H         -4.22089       -7.53393        7.86616

--Link1--
%chk=JID_10054.chk
%mem=8GB
%nprocshared=4
# B3LYP/6-311++G(d,p) empiricaldispersion=gd3bj scf=xqc pop=npa geom=check

CID_81040688_JID_10054_Energie_neutraal

0 1

--Link1--
%chk=JID_10054.chk
%mem=8GB
%nprocshared=4
# B3LYP/6-311++G(d,p) empiricaldispersion=gd3bj scf=xqc pop=npa geom=check

CID_81040688_JID_10054_Energie_kation

1 2

--Link1--
%chk=JID_10054.chk
%mem=8GB
%nprocshared=4
# B3LYP/6-311++G(d,p) empiricaldispersion=gd3bj scf=xqc pop=npa geom=check

CID_81040688_JID_10054_Energie_anion

-1 2
