%chk=JID_9776.chk
%mem=8GB
%nprocshared=4
# opt freq B3LYP/6-31G(d) empiricaldispersion=gd3bj scf=xqc

CID_82842249_JID_9776_neutraal

0 1
C          0.93305       -0.06737        0.03129
S         -0.07110        0.63867       -1.25811
O          0.50107        0.18485       -2.51686
O         -1.46251        0.34180       -0.98114
C          0.13779        2.37703       -1.24884
S          0.04353        3.22411        0.28651
O          0.59471        2.41323        1.34297
O          0.61405        4.53524        0.03673
N         -1.54820        3.56090        0.58487
C         -2.57836        2.59588        0.95713
C         -2.24827        1.87139        2.22134
C         -1.79633        2.38240        3.42439
C         -1.53937        1.36177        4.38514
C         -1.82676        0.10304        3.89803
S         -2.45932        0.17221        2.31434
S         -1.66456       -1.51377        4.59058
O         -3.00010       -1.99257        4.85556
O         -0.71059       -2.22600        3.77344
N         -0.93128       -1.34513        6.09695
H          1.03968       -1.13409       -0.18248
H          0.44139        0.04541        0.99540
H          1.91695        0.40410        0.01491
H          1.14347        2.56826       -1.63971
H         -0.57844        2.82543       -1.94231
H         -1.86189        4.47830        0.26947
H         -3.50084        3.16355        1.13746
H         -2.80532        1.94278        0.11496
H         -1.60961        3.43749        3.58911
H         -1.13991        1.53496        5.37709
H         -1.54672       -1.75301        6.80289
H         -0.02238       -1.81085        6.06690

--Link1--
%chk=JID_9776.chk
%mem=8GB
%nprocshared=4
# B3LYP/6-311++G(d,p) empiricaldispersion=gd3bj scf=xqc pop=npa geom=check

CID_82842249_JID_9776_Energie_neutraal

0 1

--Link1--
%chk=JID_9776.chk
%mem=8GB
%nprocshared=4
# B3LYP/6-311++G(d,p) empiricaldispersion=gd3bj scf=xqc pop=npa geom=check

CID_82842249_JID_9776_Energie_kation

1 2

--Link1--
%chk=JID_9776.chk
%mem=8GB
%nprocshared=4
# B3LYP/6-311++G(d,p) empiricaldispersion=gd3bj scf=xqc pop=npa geom=check

CID_82842249_JID_9776_Energie_anion

-1 2
