%chk=JID_10729.chk
%mem=8GB
%nprocshared=4
# opt freq B3LYP/6-31G(d) empiricaldispersion=gd3bj scf=xqc

CID_71997359_JID_10729_neutraal

0 1
C          0.95415       -0.06651       -0.05894
C         -0.06342       -0.54116       -1.08142
N          0.56758       -1.06091       -2.27951
C          0.71181       -0.41528       -3.47370
C          1.38325       -1.30209       -4.28606
C          1.58247       -2.44933       -3.50800
N          1.08771       -2.30618       -2.27337
S          1.89810       -1.08596       -5.89840
O          2.97608       -2.03061       -6.07899
O          0.68795       -1.15995       -6.68420
N          2.51272        0.46958       -6.09624
C          3.58991        0.95260       -5.21398
C          4.97002        0.34850       -5.51749
C          5.45104        0.72946       -6.92156
C          6.01418        0.80612       -4.47415
C          5.67002        0.36367       -3.07746
C          5.48689       -0.92167       -2.60504
C          5.12372       -0.94691       -1.22789
C          5.06567        0.31724       -0.68697
S          5.43788        1.52480       -1.83742
H          1.60808       -0.88513        0.25975
H          0.44704        0.32932        0.82624
H          1.58822        0.72459       -0.47330
H         -0.69143       -1.33786       -0.66798
H         -0.71926        0.28399       -1.37963
H          0.34736        0.58819       -3.64282
H          2.07091       -3.37712       -3.77945
H          2.61939        0.68998       -7.08574
H          3.63517        2.04290       -5.32915
H          3.29109        0.77551       -4.17756
H          4.91631       -0.74340       -5.47570
H          5.50292        1.81671       -7.04262
H          6.44889        0.32049       -7.11369
H          4.78311        0.33170       -7.69195
H          6.99464        0.38258       -4.72924
H          6.12799        1.89684       -4.52220
H          5.58797       -1.80739       -3.22197
H          4.91557       -1.84816       -0.66376
H          4.82215        0.59038        0.33051

--Link1--
%chk=JID_10729.chk
%mem=8GB
%nprocshared=4
# B3LYP/6-311++G(d,p) empiricaldispersion=gd3bj scf=xqc pop=npa geom=check

CID_71997359_JID_10729_Energie_neutraal

0 1

--Link1--
%chk=JID_10729.chk
%mem=8GB
%nprocshared=4
# B3LYP/6-311++G(d,p) empiricaldispersion=gd3bj scf=xqc pop=npa geom=check

CID_71997359_JID_10729_Energie_kation

1 2

--Link1--
%chk=JID_10729.chk
%mem=8GB
%nprocshared=4
# B3LYP/6-311++G(d,p) empiricaldispersion=gd3bj scf=xqc pop=npa geom=check

CID_71997359_JID_10729_Energie_anion

-1 2
