%chk=JID_1546.chk
%mem=8GB
%nprocshared=4
# opt freq B3LYP/6-31G(d) empiricaldispersion=gd3bj scf=xqc

CID_130663047_JID_1546_neutraal

0 1
C          0.96717        0.07413        0.05854
C          1.04796        1.40357        0.79976
C          1.47195        2.58249       -0.10808
C          0.37467        2.96654       -1.14767
O         -0.76260        3.56704       -0.49370
C         -0.41601        4.70596        0.30896
C          0.67442        4.35941        1.34109
N          1.86672        3.74198        0.73191
C         -1.68653        5.18132        1.00258
C          0.86662        3.87605       -2.29143
C          1.83028        3.18032       -3.24113
H          0.15939        0.06826       -0.67811
H          0.77095       -0.73694        0.76745
H          1.90776       -0.14781       -0.45528
H          0.07853        1.59602        1.27344
H          1.78101        1.28897        1.60886
H          2.37447        2.26027       -0.63925
H         -0.01402        2.05582       -1.61466
H         -0.06849        5.51180       -0.34757
H          0.27495        3.68517        2.10728
H          0.98459        5.26920        1.86801
H          2.31208        4.43517        0.13092
H         -1.49632        6.06361        1.62114
H         -2.45368        5.43254        0.26210
H         -2.10726        4.39163        1.63485
H         -0.00366        4.22359       -2.86254
H          1.34557        4.78103       -1.90291
H          1.39154        2.26218       -3.64422
H          2.06679        3.83883       -4.08321
H          2.77183        2.92667       -2.74637

--Link1--
%chk=JID_1546.chk
%mem=8GB
%nprocshared=4
# B3LYP/6-311++G(d,p) empiricaldispersion=gd3bj scf=xqc pop=npa geom=check

CID_130663047_JID_1546_Energie_neutraal

0 1

--Link1--
%chk=JID_1546.chk
%mem=8GB
%nprocshared=4
# B3LYP/6-311++G(d,p) empiricaldispersion=gd3bj scf=xqc pop=npa geom=check

CID_130663047_JID_1546_Energie_kation

1 2

--Link1--
%chk=JID_1546.chk
%mem=8GB
%nprocshared=4
# B3LYP/6-311++G(d,p) empiricaldispersion=gd3bj scf=xqc pop=npa geom=check

CID_130663047_JID_1546_Energie_anion

-1 2
