%chk=JID_1424.chk
%mem=8GB
%nprocshared=4
# opt freq B3LYP/6-31G(d) empiricaldispersion=gd3bj scf=xqc

CID_88777763_JID_1424_neutraal

0 1
C          1.07959       -0.02733       -0.05403
C          0.49121       -1.42038        0.15028
O          1.40698       -2.26522        0.83970
C          2.35061       -2.88429       -0.02160
O         -0.77984       -1.38107        0.80155
C         -0.81905       -0.83361        2.11897
C         -0.35544       -1.82170        3.18976
C          1.00649       -1.47044        3.81141
N          0.93006       -0.63906        5.03062
C          2.25357       -0.55967        5.65689
C          0.42689        0.70858        4.77351
H          0.32185        0.67041       -0.42344
H          1.91032       -0.05518       -0.76607
H          1.48851        0.37387        0.87903
H          0.27868       -1.84927       -0.83644
H          1.84409       -3.52500       -0.74989
H          2.96179       -2.13760       -0.53590
H          3.00992       -3.50919        0.58703
H         -0.30616        0.13007        2.15878
H         -1.87759       -0.61758        2.30494
H         -1.10594       -1.86884        3.98944
H         -0.30590       -2.83210        2.76570
H          1.46680       -2.42707        4.09264
H          1.67262       -1.00977        3.07247
H          2.99115       -0.08057        5.00261
H          2.20406        0.00601        6.59412
H          2.61948       -1.55912        5.91745
H          1.02096        1.23571        4.01844
H         -0.61753        0.68239        4.44833
H          0.43637        1.30661        5.69225

--Link1--
%chk=JID_1424.chk
%mem=8GB
%nprocshared=4
# B3LYP/6-311++G(d,p) empiricaldispersion=gd3bj scf=xqc pop=npa geom=check

CID_88777763_JID_1424_Energie_neutraal

0 1

--Link1--
%chk=JID_1424.chk
%mem=8GB
%nprocshared=4
# B3LYP/6-311++G(d,p) empiricaldispersion=gd3bj scf=xqc pop=npa geom=check

CID_88777763_JID_1424_Energie_kation

1 2

--Link1--
%chk=JID_1424.chk
%mem=8GB
%nprocshared=4
# B3LYP/6-311++G(d,p) empiricaldispersion=gd3bj scf=xqc pop=npa geom=check

CID_88777763_JID_1424_Energie_anion

-1 2
