%chk=JID_2787.chk
%mem=8GB
%nprocshared=4
# opt freq B3LYP/6-31G(d) empiricaldispersion=gd3bj scf=xqc

CID_154253053_JID_2787_neutraal

0 1
C         -0.72000        1.26100        0.22400
C          0.69194        1.27823       -0.36666
N          1.44204        0.06550       -0.02853
C          0.74169       -1.15881       -0.42242
C         -0.66216       -1.23047        0.17704
C         -1.48536        0.00291       -0.19445
C         -2.89907        0.02229        0.40960
O         -3.56223        1.07394        0.17569
O         -3.25776       -1.01977        1.02552
C          2.85984        0.10705       -0.41015
C          3.26241       -0.33370       -1.82920
O          2.74698        0.52480       -2.83784
H         -1.24863        2.16408       -0.10448
H         -0.66268        1.31625        1.31945
H          0.61580        1.41383       -1.44996
H          1.21035        2.15886        0.03156
H          1.30486       -2.03471       -0.07842
H          0.66138       -1.22928       -1.51417
H         -0.58950       -1.32346        1.26888
H         -1.15995       -2.13926       -0.18278
H         -1.61770        0.01550       -1.28542
H          3.25220        1.11583       -0.22922
H          3.39603       -0.54453        0.29168
H          4.35415       -0.30903       -1.91212
H          2.95003       -1.36052       -2.04409
H          1.77795        0.45180       -2.78186

--Link1--
%chk=JID_2787.chk
%mem=8GB
%nprocshared=4
# B3LYP/6-311++G(d,p) empiricaldispersion=gd3bj scf=xqc pop=npa geom=check

CID_154253053_JID_2787_Energie_neutraal

0 1

--Link1--
%chk=JID_2787.chk
%mem=8GB
%nprocshared=4
# B3LYP/6-311++G(d,p) empiricaldispersion=gd3bj scf=xqc pop=npa geom=check

CID_154253053_JID_2787_Energie_kation

1 2

--Link1--
%chk=JID_2787.chk
%mem=8GB
%nprocshared=4
# B3LYP/6-311++G(d,p) empiricaldispersion=gd3bj scf=xqc pop=npa geom=check

CID_154253053_JID_2787_Energie_anion

-1 2
