%chk=JID_8710.chk
%mem=8GB
%nprocshared=4
# opt freq B3LYP/6-31G(d) empiricaldispersion=gd3bj scf=xqc

CID_64121466_JID_8710_neutraal

0 1
C          1.06419       -0.05868       -0.04935
C          0.64093        1.04452        0.90663
C          1.67611        2.16877        1.08486
N          2.93830        1.78333        1.70007
C          2.96829        1.89582        3.16070
C          2.12645        3.09593        3.56979
S          0.94888        3.40286        2.22438
C          2.51814        0.61913        3.87373
O          2.08927       -0.40770        3.37391
O          2.65815        0.69938        5.21599
C          4.03845        1.20754        1.06580
O          4.95134        0.70871        1.72617
C          4.11525        1.28366       -0.40316
N          4.32577        0.19041       -1.15820
N          4.36649        0.64837       -2.41631
C          4.19269        1.99968       -2.51538
C          4.04740        2.44556       -1.22132
C          4.20040        2.70559       -3.81467
H          1.31746        0.34736       -1.03282
H          0.24130       -0.76823       -0.18629
H          1.91612       -0.62145        0.34100
H         -0.28784        1.47631        0.50921
H          0.37680        0.58771        1.86642
H          1.84484        2.66005        0.12597
H          4.00632        2.05629        3.48080
H          1.59463        2.96691        4.51649
H          2.75739        3.98695        3.65441
H          2.39565       -0.19412        5.52712
H          4.52162       -0.02145       -3.16324
H          3.91773        3.46934       -0.89816
H          5.08608        2.43639       -4.39898
H          3.31004        2.44580       -4.39612
H          4.20741        3.79071       -3.67093

--Link1--
%chk=JID_8710.chk
%mem=8GB
%nprocshared=4
# B3LYP/6-311++G(d,p) empiricaldispersion=gd3bj scf=xqc pop=npa geom=check

CID_64121466_JID_8710_Energie_neutraal

0 1

--Link1--
%chk=JID_8710.chk
%mem=8GB
%nprocshared=4
# B3LYP/6-311++G(d,p) empiricaldispersion=gd3bj scf=xqc pop=npa geom=check

CID_64121466_JID_8710_Energie_kation

1 2

--Link1--
%chk=JID_8710.chk
%mem=8GB
%nprocshared=4
# B3LYP/6-311++G(d,p) empiricaldispersion=gd3bj scf=xqc pop=npa geom=check

CID_64121466_JID_8710_Energie_anion

-1 2
