%chk=JID_7055.chk
%mem=8GB
%nprocshared=4
# opt freq B3LYP/6-31G(d) empiricaldispersion=gd3bj scf=xqc

CID_61711292_JID_7055_neutraal

0 1
C          2.49200        0.00400       -0.01400
C          0.99659        0.04216        0.08619
C          0.23809       -1.10684       -0.15844
C         -1.15432       -1.08336       -0.02628
C         -1.82060        0.09179        0.35258
C         -1.04652        1.23209        0.62624
C          0.34422        1.20858        0.49461
C         -3.33297        0.16692        0.54340
C         -4.11122       -0.72378       -0.43345
N         -3.60542       -0.20796        1.93085
C         -4.82444        0.19377        2.48447
N         -5.66216        0.98860        1.79258
C         -6.82102        1.34894        2.38420
C         -7.17948        0.98546        3.66938
C         -6.27780        0.24273        4.41781
C         -5.11040       -0.19561        3.79330
N         -6.63504       -0.24563        5.68238
H          2.92523       -0.26961        0.95289
H          2.81520       -0.72428       -0.76518
H          2.88774        0.97919       -0.31668
H          0.72711       -2.03390       -0.44926
H         -1.70409       -2.00112       -0.21496
H         -1.53082        2.14815        0.96023
H          0.91308        2.10731        0.72113
H         -3.62523        1.20857        0.35169
H         -3.96530       -1.78967       -0.22615
H         -5.18799       -0.53588       -0.36829
H         -3.80623       -0.53182       -1.46810
H         -3.42974       -1.19048        2.10473
H         -7.48214        1.95381        1.77086
H         -8.13867        1.28720        4.07207
H         -4.41075       -0.82906        4.32737
H         -5.83860       -0.49313        6.26278
H         -7.29660        0.34414        6.17822

--Link1--
%chk=JID_7055.chk
%mem=8GB
%nprocshared=4
# B3LYP/6-311++G(d,p) empiricaldispersion=gd3bj scf=xqc pop=npa geom=check

CID_61711292_JID_7055_Energie_neutraal

0 1

--Link1--
%chk=JID_7055.chk
%mem=8GB
%nprocshared=4
# B3LYP/6-311++G(d,p) empiricaldispersion=gd3bj scf=xqc pop=npa geom=check

CID_61711292_JID_7055_Energie_kation

1 2

--Link1--
%chk=JID_7055.chk
%mem=8GB
%nprocshared=4
# B3LYP/6-311++G(d,p) empiricaldispersion=gd3bj scf=xqc pop=npa geom=check

CID_61711292_JID_7055_Energie_anion

-1 2
