%chk=JID_1707.chk
%mem=8GB
%nprocshared=4
# opt freq B3LYP/6-31G(d) empiricaldispersion=gd3bj scf=xqc

CID_150085776_JID_1707_neutraal

0 1
C          1.02666        0.09165        0.02982
O          1.42759        1.26959        0.71147
C          1.53716        1.12415        2.13131
C          0.19464        0.84212        2.84053
N         -0.27425       -0.54190        2.61892
N         -1.48066       -0.73811        2.84133
N         -2.58958       -0.91105        3.03780
O          2.53619        0.18585        2.54203
C          3.85451        0.49462        2.04336
C          4.97427       -0.26603        2.69587
C          4.53876       -0.62103        1.30480
H         -0.05562       -0.04057        0.10424
H          1.55101       -0.79676        0.39202
H          1.26711        0.21954       -1.02969
H          1.86126        2.10867        2.49215
H          0.32626        0.97936        3.92034
H         -0.55702        1.55594        2.48136
H          4.07359        1.51099        1.72679
H          5.92488        0.23839        2.81817
H          4.72383       -0.95124        3.49700
H          3.99391       -1.54691        1.16413
H          5.18819       -0.35412        0.48015

--Link1--
%chk=JID_1707.chk
%mem=8GB
%nprocshared=4
# B3LYP/6-311++G(d,p) empiricaldispersion=gd3bj scf=xqc pop=npa geom=check

CID_150085776_JID_1707_Energie_neutraal

0 1

--Link1--
%chk=JID_1707.chk
%mem=8GB
%nprocshared=4
# B3LYP/6-311++G(d,p) empiricaldispersion=gd3bj scf=xqc pop=npa geom=check

CID_150085776_JID_1707_Energie_kation

1 2

--Link1--
%chk=JID_1707.chk
%mem=8GB
%nprocshared=4
# B3LYP/6-311++G(d,p) empiricaldispersion=gd3bj scf=xqc pop=npa geom=check

CID_150085776_JID_1707_Energie_anion

-1 2
