%chk=JID_9608.chk
%mem=8GB
%nprocshared=4
# opt freq B3LYP/6-31G(d) empiricaldispersion=gd3bj scf=xqc

CID_117530651_JID_9608_neutraal

0 1
C          1.01121       -0.04554       -0.08832
N          0.34582        0.16846       -1.36407
C         -1.11116        0.29911       -1.24171
C         -1.63623        1.54881       -0.51942
C         -1.35434        2.82817       -1.21468
N         -1.21354        3.99006       -0.56696
N         -1.07071        4.85506       -1.60638
N         -1.06967        4.23099       -2.81852
N         -1.27135        2.94652       -2.56950
C         -0.92274        6.26157       -1.48548
C         -0.95010        6.92369       -0.25229
C         -0.84282        8.32088       -0.20305
C         -0.67145        9.07289       -1.36672
C         -0.61485        8.41824       -2.59430
C         -0.74440        7.02446       -2.65554
O         -0.57597       10.42200       -1.16839
C         -0.49977       11.24067       -2.32908
O         -1.17767        6.27044        0.92884
C          0.03431        6.13149        1.67181
H          0.60729       -0.92094        0.43019
H          0.93286        0.82787        0.56567
H          2.07554       -0.23170       -0.26321
H          0.73137        0.99431       -1.82489
H         -1.52784        0.26860       -2.25613
H         -1.50521       -0.59222       -0.73728
H         -2.72568        1.45449       -0.42576
H         -1.24586        1.58419        0.50432
H         -0.91085        8.83299        0.75408
H         -0.47939        8.95876       -3.52584
H         -0.70844        6.55162       -3.63657
H          0.42047       11.04445       -2.88889
H         -1.38371       11.11264       -2.96279
H         -0.47403       12.28429       -2.00094
H         -0.16203        5.45525        2.50911
H          0.83344        5.69447        1.06220
H          0.35340        7.09514        2.08251

--Link1--
%chk=JID_9608.chk
%mem=8GB
%nprocshared=4
# B3LYP/6-311++G(d,p) empiricaldispersion=gd3bj scf=xqc pop=npa geom=check

CID_117530651_JID_9608_Energie_neutraal

0 1

--Link1--
%chk=JID_9608.chk
%mem=8GB
%nprocshared=4
# B3LYP/6-311++G(d,p) empiricaldispersion=gd3bj scf=xqc pop=npa geom=check

CID_117530651_JID_9608_Energie_kation

1 2

--Link1--
%chk=JID_9608.chk
%mem=8GB
%nprocshared=4
# B3LYP/6-311++G(d,p) empiricaldispersion=gd3bj scf=xqc pop=npa geom=check

CID_117530651_JID_9608_Energie_anion

-1 2
