%chk=JID_7363.chk
%mem=8GB
%nprocshared=4
# opt freq B3LYP/6-31G(d) empiricaldispersion=gd3bj scf=xqc

CID_144552856_JID_7363_neutraal

0 1
C          0.93002       -0.05978       -0.03911
C          0.43005       -1.30383        0.62912
C         -0.39948       -1.38631        1.68814
C         -0.96462       -2.71966        2.16385
N         -0.53871       -2.96911        3.53933
C         -1.44351       -3.56287        4.42760
C         -1.31115       -3.28722        5.79751
C         -2.17101       -3.85697        6.73939
C         -3.15987       -4.74419        6.31959
C         -3.26999       -5.08388        4.97081
C         -2.40063       -4.50738        4.03647
C         -4.09241       -5.33489        7.29988
O         -4.04308       -5.06600        8.49286
C         -0.94812       -0.22108        2.36185
C         -0.39131        0.63520        3.23529
O          0.84149        0.75259        3.79514
C          1.91270       -0.08205        3.39093
H          0.57606        0.86143        0.42997
H          0.60082       -0.04952       -1.08313
H          2.02424       -0.04825       -0.03173
H          0.76333       -2.22764        0.15757
H         -2.05753       -2.67391        2.06849
H         -0.61690       -3.54546        1.53178
H         -0.12526       -2.13932        3.95879
H         -0.53904       -2.60367        6.14442
H         -2.06392       -3.60474        7.79198
H         -4.01884       -5.79420        4.63136
H         -2.48623       -4.80960        2.99633
H         -4.84787       -6.03241        6.90081
H         -2.01017       -0.07502        2.15694
H         -1.00723        1.42496        3.66064
H          2.76771        0.14475        4.03573
H          2.21531        0.14381        2.36763
H          1.68500       -1.14103        3.52034

--Link1--
%chk=JID_7363.chk
%mem=8GB
%nprocshared=4
# B3LYP/6-311++G(d,p) empiricaldispersion=gd3bj scf=xqc pop=npa geom=check

CID_144552856_JID_7363_Energie_neutraal

0 1

--Link1--
%chk=JID_7363.chk
%mem=8GB
%nprocshared=4
# B3LYP/6-311++G(d,p) empiricaldispersion=gd3bj scf=xqc pop=npa geom=check

CID_144552856_JID_7363_Energie_kation

1 2

--Link1--
%chk=JID_7363.chk
%mem=8GB
%nprocshared=4
# B3LYP/6-311++G(d,p) empiricaldispersion=gd3bj scf=xqc pop=npa geom=check

CID_144552856_JID_7363_Energie_anion

-1 2
