%chk=JID_4287.chk
%mem=8GB
%nprocshared=4
# opt freq B3LYP/6-31G(d) empiricaldispersion=gd3bj scf=xqc

CID_129177334_JID_4287_neutraal

0 1
C          0.93581       -0.00142        0.07667
C          0.35205       -1.39292        0.02240
C          1.13775       -2.49063        0.32329
N          0.60586       -3.71389        0.39111
C         -0.69721       -3.89380        0.06101
N         -1.50981       -2.89546       -0.41904
C         -1.02610       -1.60843       -0.24875
C         -1.92800       -0.39637       -0.25691
C         -2.81814       -3.20363       -1.20049
C         -3.99829       -3.25516       -0.22450
C         -3.07206       -2.15586       -2.31295
C         -2.71700       -4.53565       -1.98387
C         -1.16175       -5.28661        0.38146
C          2.59756       -2.39264        0.66285
H          0.81585        0.41632        1.08107
H          0.45363        0.66067       -0.64962
H          1.99876        0.00674       -0.18226
H         -1.87338        0.12009       -1.21935
H         -2.96012       -0.64222       -0.01546
H         -1.63079        0.30884        0.52771
H         -4.13289       -2.31766        0.31887
H         -4.93358       -3.46120       -0.75751
H         -3.87525       -4.03504        0.53057
H         -2.14920       -1.90875       -2.84883
H         -3.79035       -2.52299       -3.05679
H         -3.52984       -1.23689       -1.94382
H         -1.74336       -4.64114       -2.47437
H         -2.90671       -5.41170       -1.36096
H         -3.48299       -4.60310       -2.76670
H         -2.20434       -5.31847        0.69431
H         -0.98275       -5.95570       -0.46412
H         -0.58506       -5.68246        1.22643
H          3.00141       -3.37593        0.92721
H          3.16483       -2.02085       -0.19579
H          2.74910       -1.72950        1.52014

--Link1--
%chk=JID_4287.chk
%mem=8GB
%nprocshared=4
# B3LYP/6-311++G(d,p) empiricaldispersion=gd3bj scf=xqc pop=npa geom=check

CID_129177334_JID_4287_Energie_neutraal

0 1

--Link1--
%chk=JID_4287.chk
%mem=8GB
%nprocshared=4
# B3LYP/6-311++G(d,p) empiricaldispersion=gd3bj scf=xqc pop=npa geom=check

CID_129177334_JID_4287_Energie_kation

1 2

--Link1--
%chk=JID_4287.chk
%mem=8GB
%nprocshared=4
# B3LYP/6-311++G(d,p) empiricaldispersion=gd3bj scf=xqc pop=npa geom=check

CID_129177334_JID_4287_Energie_anion

-1 2
