%chk=JID_7375.chk
%mem=8GB
%nprocshared=4
# opt freq B3LYP/6-31G(d) empiricaldispersion=gd3bj scf=xqc

CID_104016661_JID_7375_neutraal

0 1
C          1.06688        0.07404       -0.00668
C          0.52127       -0.52683        1.28944
C          1.07751       -1.93506        1.52402
C          1.19171       -2.00372        3.02741
C          1.59850       -0.59019        3.37544
O          0.99270        0.27244        2.40402
C         -1.03481       -0.52891        1.31528
N         -1.58330        0.82923        1.19796
C         -3.02975        0.88728        1.39182
C         -3.46365        0.68795        2.82569
C         -3.21511        1.67584        3.78881
C         -3.60882        1.48995        5.11585
C         -4.26543        0.31554        5.50390
C         -4.50250       -0.67835        4.54654
C         -4.11013       -0.49151        3.21896
C         -4.65440        0.09951        6.94122
O         -3.57876       -0.47760        7.66946
H          0.76246        1.11959       -0.12432
H          0.73064       -0.49088       -0.88190
H          2.16303        0.08213        0.00072
H          0.45217       -2.72863        1.10390
H          2.07956       -2.03751        1.08874
H          1.90950       -2.75041        3.37735
H          0.21721       -2.23711        3.47085
H          2.68389       -0.46238        3.30341
H          1.27924       -0.29588        4.37905
H         -1.41627       -1.15090        0.49689
H         -1.36405       -0.97282        2.26081
H         -1.11114        1.41560        1.88958
H         -3.38118        1.87488        1.06781
H         -3.53225        0.17138        0.72933
H         -2.70911        2.59729        3.50771
H         -3.39750        2.26798        5.84685
H         -4.99366       -1.60701        4.83028
H         -4.30651       -1.27683        2.49228
H         -4.92867        1.04780        7.41537
H         -5.52181       -0.56468        7.01628
H         -2.82003       -0.55363        7.06557

--Link1--
%chk=JID_7375.chk
%mem=8GB
%nprocshared=4
# B3LYP/6-311++G(d,p) empiricaldispersion=gd3bj scf=xqc pop=npa geom=check

CID_104016661_JID_7375_Energie_neutraal

0 1

--Link1--
%chk=JID_7375.chk
%mem=8GB
%nprocshared=4
# B3LYP/6-311++G(d,p) empiricaldispersion=gd3bj scf=xqc pop=npa geom=check

CID_104016661_JID_7375_Energie_kation

1 2

--Link1--
%chk=JID_7375.chk
%mem=8GB
%nprocshared=4
# B3LYP/6-311++G(d,p) empiricaldispersion=gd3bj scf=xqc pop=npa geom=check

CID_104016661_JID_7375_Energie_anion

-1 2
