%chk=JID_5341.chk
%mem=8GB
%nprocshared=4
# opt freq B3LYP/6-31G(d) empiricaldispersion=gd3bj scf=xqc

CID_115024162_JID_5341_neutraal

0 1
C          1.00700       -1.41200       -0.03900
C          0.17799       -0.31840       -0.71309
C         -0.37197        0.76278        0.26407
C         -1.67793       -0.06173        0.36699
C         -1.30231       -0.71902       -0.98104
N         -2.85048        0.76041        0.29253
C         -4.18562        0.29797        0.14216
C         -5.15679        1.24048       -0.24217
C         -6.50049        0.88470       -0.39652
C         -6.90634       -0.42290       -0.15286
C         -5.97248       -1.36499        0.26967
C         -4.63144       -0.99932        0.45074
O         -3.76643       -1.97466        0.88118
C         -3.86916       -2.11753        2.29919
C          0.89559        0.25573       -1.93021
H          1.97140       -1.01653        0.29773
H          0.49829       -1.83179        0.83532
H          1.20315       -2.23535       -0.73432
H          0.17755        0.87865        1.20382
H         -0.48514        1.75732       -0.18557
H         -1.66761       -0.72861        1.23392
H         -1.74515       -0.23814       -1.86260
H         -1.50035       -1.79349       -1.04588
H         -2.70612        1.58639       -0.28314
H         -4.86937        2.27111       -0.43564
H         -7.22581        1.63061       -0.71090
H         -7.94678       -0.70698       -0.28427
H         -6.28580       -2.38700        0.46332
H         -3.73791       -1.15823        2.81286
H         -4.82506       -2.57229        2.57995
H         -3.06830       -2.78770        2.62573
H          0.30305        1.03884       -2.41591
H          1.85677        0.69659       -1.64475
H          1.08750       -0.52437       -2.67467

--Link1--
%chk=JID_5341.chk
%mem=8GB
%nprocshared=4
# B3LYP/6-311++G(d,p) empiricaldispersion=gd3bj scf=xqc pop=npa geom=check

CID_115024162_JID_5341_Energie_neutraal

0 1

--Link1--
%chk=JID_5341.chk
%mem=8GB
%nprocshared=4
# B3LYP/6-311++G(d,p) empiricaldispersion=gd3bj scf=xqc pop=npa geom=check

CID_115024162_JID_5341_Energie_kation

1 2

--Link1--
%chk=JID_5341.chk
%mem=8GB
%nprocshared=4
# B3LYP/6-311++G(d,p) empiricaldispersion=gd3bj scf=xqc pop=npa geom=check

CID_115024162_JID_5341_Energie_anion

-1 2
