%chk=JID_5340.chk
%mem=8GB
%nprocshared=4
# opt freq B3LYP/6-31G(d) empiricaldispersion=gd3bj scf=xqc

CID_103961512_JID_5340_neutraal

0 1
C          1.04283        0.08999       -0.00817
C          0.13293        1.22018       -0.47213
C          0.88118        2.44634       -1.06166
C          0.94381        2.44759       -2.62768
C          1.55856        3.71492       -3.27725
C          3.09263        3.75923       -3.44563
C          3.60902        2.44690       -4.07387
C          3.06728        1.12317       -3.48581
C          1.53223        1.18937       -3.30319
C          3.80178        0.72496       -2.19615
C          3.37519       -0.00176       -4.50884
C          3.81183        4.10600       -2.13251
C          3.42802        4.91426       -4.42559
N          0.11826        3.62266       -0.58589
C          0.75075        4.26240        0.55958
H          1.53795       -0.41166       -0.83892
H          0.45386       -0.66717        0.52037
H          1.80755        0.45960        0.68223
H         -0.60623        0.83585       -1.18542
H         -0.44149        1.51868        0.41612
H          1.89288        2.47999       -0.65778
H         -0.11484        2.45859       -2.93578
H          1.11598        3.77625       -4.28344
H          1.22583        4.63096       -2.77906
H          4.70765        2.43778       -4.06497
H          3.33303        2.46627       -5.13886
H          1.16219        0.27641       -2.82913
H          1.08856        1.16337       -4.31082
H          3.57470       -0.31063       -1.91880
H          4.88830        0.78793       -2.32702
H          3.54043        1.34081       -1.33992
H          2.90324        0.19631       -5.47804
H          4.45385       -0.09637       -4.67938
H          3.00466       -0.97110       -4.15579
H          4.89615        4.16347       -2.28377
H          3.48347        5.08090       -1.75311
H          3.64015        3.38706       -1.33701
H          2.95210        4.76409       -5.40143
H          3.08127        5.87829       -4.03571
H          4.50863        4.98948       -4.59332
H         -0.02791        4.30902       -1.32011
H          1.72671        4.68019        0.29269
H          0.11958        5.08422        0.91147
H          0.87496        3.56237        1.39182

--Link1--
%chk=JID_5340.chk
%mem=8GB
%nprocshared=4
# B3LYP/6-311++G(d,p) empiricaldispersion=gd3bj scf=xqc pop=npa geom=check

CID_103961512_JID_5340_Energie_neutraal

0 1

--Link1--
%chk=JID_5340.chk
%mem=8GB
%nprocshared=4
# B3LYP/6-311++G(d,p) empiricaldispersion=gd3bj scf=xqc pop=npa geom=check

CID_103961512_JID_5340_Energie_kation

1 2

--Link1--
%chk=JID_5340.chk
%mem=8GB
%nprocshared=4
# B3LYP/6-311++G(d,p) empiricaldispersion=gd3bj scf=xqc pop=npa geom=check

CID_103961512_JID_5340_Energie_anion

-1 2
