%chk=JID_10422.chk
%mem=8GB
%nprocshared=4
# opt freq B3LYP/6-31G(d) empiricaldispersion=gd3bj scf=xqc

CID_121667217_JID_10422_neutraal

0 1
C          0.99236       -0.02818       -0.09564
C          0.28958        0.63654        1.07161
O          1.21644        1.47889        1.76961
C          1.82500        0.92121        2.84539
O          1.60649       -0.17520        3.33381
C          2.69311        1.92502        3.46791
C          3.87585        2.36268        2.86297
N          4.67071        3.27990        3.47299
C          4.29703        3.74549        4.68749
C          3.15430        3.34073        5.35363
C          2.33791        2.40583        4.73242
N          4.28527        1.84044        1.61286
C          4.01844        2.83825        0.55080
C          4.41249        2.27251       -0.82680
C          5.86171        1.81790       -0.77180
C          6.44362        1.08561       -1.96189
N          7.56092        0.29575       -1.40044
C          7.45817        0.33853        0.07553
C          6.03429        0.78183        0.32572
C          5.69906        1.39899        1.67347
H          1.39961        0.72591       -0.77641
H          0.30158       -0.66672       -0.65326
H          1.83490       -0.63566        0.25010
H         -0.51623        1.27887        0.70187
H         -0.16899       -0.10735        1.73267
H          4.97126        4.47519        5.12765
H          2.90945        3.73928        6.33177
H          1.43606        2.04907        5.22260
H          2.95350        3.09849        0.52613
H          4.58170        3.76317        0.73602
H          3.75930        1.42982       -1.08256
H          4.27847        3.03753       -1.59911
H          6.49267        2.69581       -0.56205
H          5.71509        0.40195       -2.41166
H          6.79203        1.77395       -2.73817
H          8.45342        0.69551       -1.68871
H          7.67210       -0.64166        0.51105
H          8.17852        1.06205        0.47541
H          5.35800       -0.06938        0.14839
H          6.37695        2.23614        1.88721
H          5.82740        0.64557        2.46065

--Link1--
%chk=JID_10422.chk
%mem=8GB
%nprocshared=4
# B3LYP/6-311++G(d,p) empiricaldispersion=gd3bj scf=xqc pop=npa geom=check

CID_121667217_JID_10422_Energie_neutraal

0 1

--Link1--
%chk=JID_10422.chk
%mem=8GB
%nprocshared=4
# B3LYP/6-311++G(d,p) empiricaldispersion=gd3bj scf=xqc pop=npa geom=check

CID_121667217_JID_10422_Energie_kation

1 2

--Link1--
%chk=JID_10422.chk
%mem=8GB
%nprocshared=4
# B3LYP/6-311++G(d,p) empiricaldispersion=gd3bj scf=xqc pop=npa geom=check

CID_121667217_JID_10422_Energie_anion

-1 2
