%chk=JID_5439.chk
%mem=8GB
%nprocshared=4
# opt freq B3LYP/6-31G(d) empiricaldispersion=gd3bj scf=xqc

CID_141417390_JID_5439_neutraal

0 1
C          0.94841        0.00420       -0.08556
C          0.08391        1.27318        0.06292
C         -0.91897        1.23311        1.27039
C         -1.84444        0.04901        0.88413
C         -1.95771        0.17688       -0.67156
C         -1.07847        1.42528       -0.99128
C         -1.80775        2.56881       -0.36694
C         -1.71198        2.45198        0.95917
C         -2.20420        3.66353        1.56944
O         -2.16970        3.93703        2.75111
N         -2.64395        4.43251        0.53430
C         -2.37135        3.86301       -0.67338
O         -2.51072        4.34260       -1.77941
C         -0.68527        1.58096       -2.44186
C          1.08059        2.45937        0.11701
H          0.38210       -0.92550       -0.16804
H          1.61239       -0.10609        0.77962
H          1.57637        0.06800       -0.98153
H         -0.47200        1.19308        2.26401
H         -2.83003        0.11281        1.35997
H         -1.40450       -0.91436        1.16160
H         -1.58533       -0.72869       -1.16228
H         -3.00172        0.31152       -0.97962
H         -2.98839        5.37131        0.64336
H         -1.57151        1.67025       -3.07983
H         -0.07340        2.47533       -2.59996
H         -0.11165        0.71649       -2.79117
H          1.73852        2.36195        0.98836
H          1.71223        2.47332       -0.77852
H          0.60923        3.44394        0.18381

--Link1--
%chk=JID_5439.chk
%mem=8GB
%nprocshared=4
# B3LYP/6-311++G(d,p) empiricaldispersion=gd3bj scf=xqc pop=npa geom=check

CID_141417390_JID_5439_Energie_neutraal

0 1

--Link1--
%chk=JID_5439.chk
%mem=8GB
%nprocshared=4
# B3LYP/6-311++G(d,p) empiricaldispersion=gd3bj scf=xqc pop=npa geom=check

CID_141417390_JID_5439_Energie_kation

1 2

--Link1--
%chk=JID_5439.chk
%mem=8GB
%nprocshared=4
# B3LYP/6-311++G(d,p) empiricaldispersion=gd3bj scf=xqc pop=npa geom=check

CID_141417390_JID_5439_Energie_anion

-1 2
