%chk=JID_5539.chk
%mem=8GB
%nprocshared=4
# opt freq B3LYP/6-31G(d) empiricaldispersion=gd3bj scf=xqc

CID_61482886_JID_5539_neutraal

0 1
C          0.93969       -0.07958       -0.00546
C         -0.15149        0.10307       -1.05115
C          0.15480       -0.60307       -2.37448
C          0.23191       -2.12528       -2.27688
O         -1.05901       -2.67683       -2.05254
C         -1.26195       -3.24756       -0.75973
C         -0.76736       -4.70449       -0.66128
N          0.65164       -4.91018       -0.34452
C          1.06703       -4.53260        1.01878
C          0.53175       -5.56016        2.02626
C          2.61159       -4.42377        1.18384
C          3.29123       -3.32993        0.37076
C          4.71379       -3.83096        0.32579
C          4.51161       -5.32309        0.17032
O          3.28887       -5.65003        0.84422
H          1.00671       -1.11591        0.33350
H          0.72425        0.53924        0.87161
H          1.91612        0.22023       -0.39881
H         -1.11085       -0.23917       -0.64807
H         -0.26210        1.17578       -1.25117
H         -0.62995       -0.33170       -3.09131
H          1.10341       -0.22220       -2.77115
H          0.57794       -2.51764       -3.23919
H          0.95695       -2.43371       -1.52346
H         -0.86241       -2.60175        0.02655
H         -2.34864       -3.26237       -0.61607
H         -1.38246       -5.23663        0.07122
H         -0.95265       -5.19723       -1.62329
H          1.23910       -4.48444       -1.05307
H          0.66015       -3.54886        1.27710
H          0.85505       -6.57659        1.77545
H          0.89115       -5.33513        3.03663
H         -0.56154       -5.55317        2.07240
H          2.83191       -4.24241        2.24507
H          2.90490       -3.27152       -0.65031
H          3.19749       -2.34233        0.83053
H          5.30903       -3.39364       -0.47996
H          5.21379       -3.61647        1.27779
H          4.39519       -5.59853       -0.88324
H          5.33457       -5.90461        0.59483

--Link1--
%chk=JID_5539.chk
%mem=8GB
%nprocshared=4
# B3LYP/6-311++G(d,p) empiricaldispersion=gd3bj scf=xqc pop=npa geom=check

CID_61482886_JID_5539_Energie_neutraal

0 1

--Link1--
%chk=JID_5539.chk
%mem=8GB
%nprocshared=4
# B3LYP/6-311++G(d,p) empiricaldispersion=gd3bj scf=xqc pop=npa geom=check

CID_61482886_JID_5539_Energie_kation

1 2

--Link1--
%chk=JID_5539.chk
%mem=8GB
%nprocshared=4
# B3LYP/6-311++G(d,p) empiricaldispersion=gd3bj scf=xqc pop=npa geom=check

CID_61482886_JID_5539_Energie_anion

-1 2
