%chk=JID_10030.chk
%mem=8GB
%nprocshared=4
# opt freq B3LYP/6-31G(d) empiricaldispersion=gd3bj scf=xqc

CID_111837225_JID_10030_neutraal

0 1
C          1.09090       -0.00792       -0.04091
C          0.88376       -1.33659       -0.74690
N          0.73450       -2.39517        0.24535
C          0.32463       -3.64214       -0.13453
N          0.89983       -4.76831        0.10337
C          2.16194       -4.78011        0.84319
C          2.73915       -6.20193        0.93708
C          2.84839       -6.98638       -0.40593
C          2.35492       -8.23918        0.34126
C          1.75780       -7.31410        1.41805
O          3.98076       -6.12959        1.69206
N         -0.84987       -3.68104       -0.82256
C         -2.04793       -3.04135       -0.27915
C         -3.30497       -3.60762       -0.96990
C         -4.59125       -2.90506       -0.54969
C         -5.69860       -3.88954       -0.89775
C         -4.99837       -5.19656       -1.25320
N         -3.59498       -5.05363       -0.84829
C         -3.28295       -5.71744        0.42278
C         -4.04940       -5.29627        1.67234
H          0.23472        0.23334        0.59798
H          1.21165        0.79764       -0.77170
H          1.98453       -0.03245        0.59175
H          0.00519       -1.26123       -1.39518
H          1.74812       -1.55535       -1.38390
H          1.55697       -2.43374        0.83513
H          2.89786       -4.13691        0.34450
H          1.99890       -4.39759        1.85840
H          2.17104       -6.65531       -1.20058
H          3.85586       -7.06956       -0.82441
H          3.16544       -8.87750        0.71092
H          1.63608       -8.85949       -0.20022
H          1.90005       -7.65770        2.44697
H          0.69384       -7.09972        1.26983
H          4.31481       -7.04186        1.72473
H         -1.05636       -4.65370       -1.05076
H         -2.09888       -3.19166        0.80485
H         -2.00092       -1.96086       -0.45372
H         -3.17412       -3.42428       -2.04740
H         -4.60723       -2.68389        0.52260
H         -4.72357       -1.95565       -1.07975
H         -6.37462       -4.01586       -0.04541
H         -6.29360       -3.52763       -1.74334
H         -5.50006       -6.06859       -0.81902
H         -5.02884       -5.33453       -2.34123
H         -3.44852       -6.79356        0.27964
H         -2.21013       -5.63704        0.62905
H         -5.12850       -5.42826        1.55431
H         -3.73877       -5.91896        2.51852
H         -3.84876       -4.25841        1.94733

--Link1--
%chk=JID_10030.chk
%mem=8GB
%nprocshared=4
# B3LYP/6-311++G(d,p) empiricaldispersion=gd3bj scf=xqc pop=npa geom=check

CID_111837225_JID_10030_Energie_neutraal

0 1

--Link1--
%chk=JID_10030.chk
%mem=8GB
%nprocshared=4
# B3LYP/6-311++G(d,p) empiricaldispersion=gd3bj scf=xqc pop=npa geom=check

CID_111837225_JID_10030_Energie_kation

1 2

--Link1--
%chk=JID_10030.chk
%mem=8GB
%nprocshared=4
# B3LYP/6-311++G(d,p) empiricaldispersion=gd3bj scf=xqc pop=npa geom=check

CID_111837225_JID_10030_Energie_anion

-1 2
