%chk=JID_1189.chk
%mem=8GB
%nprocshared=4
# opt=(cartesian,calcfc) freq B3LYP/6-31G(d) empiricaldispersion=gd3bj scf=xqc

CID_123873508_JID_1189_neutraal

0 1
6	-5.378803	 -0.391654	 0.333847
6	-4.106490	 0.358375	 0.085503
6	-2.901197	 -0.200144	 -0.107496
6	-1.682008	 0.574145	 -0.330319
6	-0.479750	 0.072152	 -0.520605
6	0.726935	 -0.403351	 -0.685157
6	1.703825	 -0.627283	 0.441271
6	2.898032	 -1.552601	 0.081416
7	3.689844	 -0.352336	 -0.260106
6	2.797873	 0.490936	 0.576104
6	2.528979	 1.892916	 0.063802
1	-5.216709	 -1.472671	 0.319948
1	-6.138035	 -0.150469	 -0.421617
1	-5.813671	 -0.123842	 1.304701
1	-4.182879	 1.446439	 0.068911
1	-2.797907	 -1.285865	 -0.097162
1	-1.791216	 1.662621	 -0.329064
1	1.096856	 -0.590092	 -1.697554
1	1.176197	 -0.860936	 1.365706
1	3.253749	 -2.094109	 0.966157
1	2.757946	 -2.265151	 -0.738445
1	4.672795	 -0.367787	 0.002637
1	3.124451	 0.536341	 1.635845
1	1.691623	 2.350763	 0.612027
1	3.416996	 2.532056	 0.198063
1	2.276519	 1.868110	 -0.999604

--Link1--
%chk=JID_1189.chk
%mem=8GB
%nprocshared=4
# B3LYP/6-311++G(d,p) empiricaldispersion=gd3bj scf=xqc pop=npa geom=check

CID_123873508_JID_1189_Energie_neutraal

0 1

--Link1--
%chk=JID_1189.chk
%mem=8GB
%nprocshared=4
# B3LYP/6-311++G(d,p) empiricaldispersion=gd3bj scf=xqc pop=npa geom=check

CID_123873508_JID_1189_Energie_kation

1 2

--Link1--
%chk=JID_1189.chk
%mem=8GB
%nprocshared=4
# B3LYP/6-311++G(d,p) empiricaldispersion=gd3bj scf=xqc pop=npa geom=check

CID_123873508_JID_1189_Energie_anion

-1 2
