%chk=JID_8454.chk
%mem=8GB
%nprocshared=4
# opt freq B3LYP/6-31G(d) empiricaldispersion=gd3bj scf=xqc

CID_81774563_JID_8454_neutraal

0 1
C          0.96749       -0.07550        0.05695
S         -0.23856       -1.22115       -0.54450
O         -0.15736       -2.41297        0.27814
O         -1.48386       -0.48611       -0.67055
C          0.23003       -1.72956       -2.19148
C         -0.79035       -1.95260       -3.12131
C         -0.48553       -2.51169       -4.36157
C          0.82524       -2.89611       -4.65553
C          1.84122       -2.71364       -3.71872
C          1.55642       -2.04368       -2.51451
N          3.16693       -3.09950       -3.97399
C          3.73821       -4.21170       -4.54157
O          4.89664       -4.06650       -4.96232
C          3.16073       -5.66333       -4.45709
C          3.43146       -6.30930       -3.06962
C          2.79998       -5.44180       -1.99302
C          2.25830       -4.69765       -1.06951
N          1.75332       -5.80738       -4.86596
H          0.63910        0.28131        1.03571
H          1.03652        0.76309       -0.63844
H          1.93033       -0.57886        0.15561
H         -1.82613       -1.71878       -2.87963
H         -1.27512       -2.66837       -5.09356
H          1.04121       -3.29779       -5.64076
H          2.35001       -1.89297       -1.78830
H          3.87534       -2.41808       -3.72448
H          3.73064       -6.24480       -5.19394
H          3.02507       -7.32523       -3.02097
H          4.51069       -6.36246       -2.88677
H          1.79529       -4.15079       -0.27981
H          1.15142       -5.34866       -4.18284
H          1.61008       -5.36907       -5.77111

--Link1--
%chk=JID_8454.chk
%mem=8GB
%nprocshared=4
# B3LYP/6-311++G(d,p) empiricaldispersion=gd3bj scf=xqc pop=npa geom=check

CID_81774563_JID_8454_Energie_neutraal

0 1

--Link1--
%chk=JID_8454.chk
%mem=8GB
%nprocshared=4
# B3LYP/6-311++G(d,p) empiricaldispersion=gd3bj scf=xqc pop=npa geom=check

CID_81774563_JID_8454_Energie_kation

1 2

--Link1--
%chk=JID_8454.chk
%mem=8GB
%nprocshared=4
# B3LYP/6-311++G(d,p) empiricaldispersion=gd3bj scf=xqc pop=npa geom=check

CID_81774563_JID_8454_Energie_anion

-1 2
