%chk=JID_3349.chk
%mem=8GB
%nprocshared=4
# opt freq B3LYP/6-31G(d) empiricaldispersion=gd3bj scf=xqc

CID_118582153_JID_3349_neutraal

0 1
C          0.93789       -0.05473        0.05610
C          0.53913       -0.14856        1.53277
C          1.11521        1.04468        2.30252
C         -0.98632       -0.28422        1.76826
C         -1.79929        0.94964        1.35771
C         -3.19226        0.41200        1.07997
C         -3.60806        0.29807       -0.40605
C         -3.77011       -1.21669       -0.22558
C         -3.08025       -1.12498        1.14557
N         -1.63374       -1.37968        1.02065
C         -1.23326       -2.74228        1.42804
C         -1.45199       -3.10959        2.90248
C         -1.87131       -3.80839        0.52724
H          0.55302        0.85350       -0.41690
H          0.57507       -0.91641       -0.51262
H          2.02910       -0.03733       -0.04225
H          1.02357       -1.04484        1.94130
H          0.74377        1.99756        1.91174
H          0.85466        0.98518        3.36446
H          2.20808        1.05881        2.22898
H         -1.15530       -0.42210        2.84499
H         -1.82259        1.68117        2.17326
H         -1.39438        1.45393        0.47528
H         -3.97986        0.82333        1.72165
H         -2.83170        0.57076       -1.12935
H         -4.52894        0.82785       -0.66762
H         -3.28902       -1.82296       -0.99828
H         -4.81924       -1.52770       -0.15444
H         -3.60566       -1.58273        1.98740
H         -0.15543       -2.82758        1.24177
H         -2.50762       -3.07381        3.18683
H         -1.09933       -4.12965        3.09425
H         -0.89036       -2.45328        3.57349
H         -1.67697       -3.59692       -0.52988
H         -1.44646       -4.79543        0.74229
H         -2.95394       -3.87704        0.67609

--Link1--
%chk=JID_3349.chk
%mem=8GB
%nprocshared=4
# B3LYP/6-311++G(d,p) empiricaldispersion=gd3bj scf=xqc pop=npa geom=check

CID_118582153_JID_3349_Energie_neutraal

0 1

--Link1--
%chk=JID_3349.chk
%mem=8GB
%nprocshared=4
# B3LYP/6-311++G(d,p) empiricaldispersion=gd3bj scf=xqc pop=npa geom=check

CID_118582153_JID_3349_Energie_kation

1 2

--Link1--
%chk=JID_3349.chk
%mem=8GB
%nprocshared=4
# B3LYP/6-311++G(d,p) empiricaldispersion=gd3bj scf=xqc pop=npa geom=check

CID_118582153_JID_3349_Energie_anion

-1 2
