%chk=JID_8112.chk
%mem=8GB
%nprocshared=4
# opt freq B3LYP/6-31G(d) empiricaldispersion=gd3bj scf=xqc

CID_102100652_JID_8112_neutraal

0 1
C          2.49200        0.00400       -0.01400
C          1.00432       -0.12362       -0.14549
C          0.33427       -1.22720        0.38276
C         -1.05147       -1.36195        0.22503
C         -1.80751       -0.40528       -0.47112
C         -1.11564        0.68301       -1.01833
C          0.26986        0.82297       -0.86054
N         -3.23137       -0.55818       -0.61371
C         -3.97827       -1.08765        0.53586
C         -5.13298       -1.88016        0.05382
C         -5.71722       -3.05146        0.48047
C         -6.82712       -3.29274       -0.36607
C         -6.89416       -2.26323       -1.28839
N         -5.84348       -1.42435       -1.02142
C         -5.45281       -0.20990       -1.70885
C         -3.94406        0.00512       -1.69097
O         -3.44319        0.64629       -2.61933
C         -7.86725       -2.03570       -2.38834
H          2.84222       -0.45257        0.91774
H          2.98627       -0.48859       -0.85697
H          2.79332        1.05661        0.00740
H          0.88545       -2.00259        0.91046
H         -1.50460       -2.27000        0.61179
H         -1.63213        1.47184       -1.55736
H          0.76529        1.68394       -1.30440
H         -3.36878       -1.69415        1.20756
H         -4.34181       -0.22553        1.10940
H         -5.39209       -3.66430        1.31139
H         -7.51152       -4.12995       -0.30726
H         -5.95145        0.63034       -1.21677
H         -5.78142       -0.28775       -2.74946
H         -8.68629       -2.76070       -2.34113
H         -8.30251       -1.03355       -2.32145
H         -7.37845       -2.14204       -3.36190

--Link1--
%chk=JID_8112.chk
%mem=8GB
%nprocshared=4
# B3LYP/6-311++G(d,p) empiricaldispersion=gd3bj scf=xqc pop=npa geom=check

CID_102100652_JID_8112_Energie_neutraal

0 1

--Link1--
%chk=JID_8112.chk
%mem=8GB
%nprocshared=4
# B3LYP/6-311++G(d,p) empiricaldispersion=gd3bj scf=xqc pop=npa geom=check

CID_102100652_JID_8112_Energie_kation

1 2

--Link1--
%chk=JID_8112.chk
%mem=8GB
%nprocshared=4
# B3LYP/6-311++G(d,p) empiricaldispersion=gd3bj scf=xqc pop=npa geom=check

CID_102100652_JID_8112_Energie_anion

-1 2
