%chk=JID_7496.chk
%mem=8GB
%nprocshared=4
# opt freq B3LYP/6-31G(d) empiricaldispersion=gd3bj scf=xqc

CID_114179046_JID_7496_neutraal

0 1
C          0.94040       -0.06515        0.04694
C          0.62196        0.34236       -1.39260
C          1.12020       -0.69276       -2.40950
C          0.53501       -2.07451       -2.22181
O         -0.54293       -2.30456       -1.68674
N          1.28575       -3.08741       -2.74262
N         -0.81292        0.58179       -1.54876
C         -1.47811        1.55819       -0.85353
N         -2.54713        1.21536       -0.23206
C         -3.33064        2.11319        0.60184
C         -4.75830        1.55260        0.65396
C         -5.68081        2.43015        1.49293
C         -5.67163        3.87392        1.00424
C         -4.25389        4.43494        0.94767
C         -3.32547        3.55451        0.09540
C         -1.90369        4.09037        0.15399
S         -0.80359        3.16735       -0.92676
H          0.34932       -0.92690        0.37333
H          0.72565        0.75263        0.74337
H          2.00072       -0.31715        0.15415
H          1.17010        1.26627       -1.61258
H          0.86934       -0.36861       -3.42693
H          2.21327       -0.76131       -2.34424
H          2.15176       -2.94213       -3.24195
H          0.92070       -4.02858       -2.66707
H         -1.33076       -0.29560       -1.43746
H         -2.92083        2.07558        1.62070
H         -5.16186        1.46599       -0.36359
H         -4.74541        0.53670        1.06795
H         -5.36159        2.39646        2.54193
H         -6.70161        2.03370        1.45669
H         -6.28651        4.49176        1.66823
H         -6.12504        3.92590        0.00689
H         -4.28303        5.45174        0.53819
H         -3.85902        4.51636        1.96883
H         -3.68741        3.58615       -0.94243
H         -1.87541        5.14117       -0.15342
H         -1.50742        4.04266        1.17482

--Link1--
%chk=JID_7496.chk
%mem=8GB
%nprocshared=4
# B3LYP/6-311++G(d,p) empiricaldispersion=gd3bj scf=xqc pop=npa geom=check

CID_114179046_JID_7496_Energie_neutraal

0 1

--Link1--
%chk=JID_7496.chk
%mem=8GB
%nprocshared=4
# B3LYP/6-311++G(d,p) empiricaldispersion=gd3bj scf=xqc pop=npa geom=check

CID_114179046_JID_7496_Energie_kation

1 2

--Link1--
%chk=JID_7496.chk
%mem=8GB
%nprocshared=4
# B3LYP/6-311++G(d,p) empiricaldispersion=gd3bj scf=xqc pop=npa geom=check

CID_114179046_JID_7496_Energie_anion

-1 2
