%chk=JID_8907.chk
%mem=8GB
%nprocshared=4
# opt freq B3LYP/6-31G(d) empiricaldispersion=gd3bj scf=xqc

CID_137927325_JID_8907_neutraal

0 1
C          0.94465       -0.02996       -0.07771
N          0.14020        0.28346       -1.26609
C          0.12956       -0.82222       -2.24976
C         -0.99909       -0.68773       -3.28625
C         -0.63655        0.15276       -4.48105
C         -1.63483        0.30677       -5.60224
C         -1.30032        1.48320       -4.73308
C          0.65085        1.48612       -1.82593
N          1.81111        1.45174       -2.50766
C          2.23984        2.59428       -3.04087
N          1.63453        3.77465       -2.91798
C          0.47568        3.79652       -2.22944
C         -0.05887        2.66735       -1.62840
C         -1.37403        2.69641       -0.89930
C         -1.85410        4.10787       -0.55937
C         -1.67185        5.03984       -1.75001
C         -0.19245        5.14087       -2.11020
N          3.43901        2.56739       -3.72545
H          0.51464       -0.89489        0.43978
H          0.93991        0.80098        0.63795
H          1.98340       -0.27220       -0.33362
H          1.10665       -0.96859       -2.72785
H         -0.07500       -1.74656       -1.69276
H         -1.22384       -1.69402       -3.66211
H         -1.91471       -0.31857       -2.80844
H          0.40243        0.03864       -4.77268
H         -1.25867        0.30549       -6.61907
H         -2.61638       -0.13941       -5.49183
H         -2.05704        1.83142       -4.04108
H         -0.68712        2.27395       -5.15183
H         -1.30649        2.12680        0.03473
H         -2.12713        2.20926       -1.53110
H         -1.28800        4.49536        0.29739
H         -2.90735        4.07656       -0.25861
H         -2.24314        4.66049       -2.60678
H         -2.06383        6.03557       -1.51489
H         -0.08709        5.68995       -3.05316
H          0.33515        5.71287       -1.33706
H          3.99495        1.79534       -3.38708
H          3.85379        3.48802       -3.69523

--Link1--
%chk=JID_8907.chk
%mem=8GB
%nprocshared=4
# B3LYP/6-311++G(d,p) empiricaldispersion=gd3bj scf=xqc pop=npa geom=check

CID_137927325_JID_8907_Energie_neutraal

0 1

--Link1--
%chk=JID_8907.chk
%mem=8GB
%nprocshared=4
# B3LYP/6-311++G(d,p) empiricaldispersion=gd3bj scf=xqc pop=npa geom=check

CID_137927325_JID_8907_Energie_kation

1 2

--Link1--
%chk=JID_8907.chk
%mem=8GB
%nprocshared=4
# B3LYP/6-311++G(d,p) empiricaldispersion=gd3bj scf=xqc pop=npa geom=check

CID_137927325_JID_8907_Energie_anion

-1 2
