%chk=JID_10730.chk
%mem=8GB
%nprocshared=4
# opt freq B3LYP/6-31G(d) empiricaldispersion=gd3bj scf=xqc

CID_60686743_JID_10730_neutraal

0 1
C         -2.42700       -1.00500        0.00000
C         -1.17076       -1.62598       -0.00553
C          0.00829       -0.87040       -0.05971
C         -0.12158        0.52217       -0.08439
C         -1.36381        1.15717       -0.07248
C         -2.51177        0.38192       -0.03433
O         -3.71450        1.02139       -0.02827
O          1.00344        1.36856       -0.11712
C          2.28320        0.85015       -0.11000
O          3.28365        1.55723       -0.11897
C          2.40658       -0.61408       -0.10306
C          1.35967       -1.45520       -0.09640
C          1.58153       -2.95317       -0.09457
N          1.01525       -3.66358       -1.25873
C          1.08833       -5.13057       -1.04138
C         -0.16636       -5.63255       -0.31143
O         -1.33872       -5.36544       -1.07894
C          1.66924       -3.28160       -2.52777
C          0.78464       -3.64202       -3.73879
O         -0.58276       -3.30602       -3.48937
H         -3.31979       -1.62328        0.03439
H         -1.14530       -2.71187        0.03062
H         -1.43249        2.24034       -0.09336
H         -4.42395        0.35743       -0.02009
H          3.43030       -0.97173       -0.11558
H          2.65488       -3.17816       -0.02014
H          1.13624       -3.33929        0.83189
H          1.12642       -5.66020       -1.99989
H          1.99555       -5.41270       -0.49331
H         -0.10430       -6.71472       -0.16057
H         -0.28297       -5.16191        0.66908
H         -1.10695       -4.66412       -1.72222
H          1.78968       -2.19299       -2.56551
H          2.67029       -3.71722       -2.62821
H          1.11529       -3.08986       -4.62394
H          0.82993       -4.70966       -3.97112
H         -0.58195       -2.66878       -2.75008

--Link1--
%chk=JID_10730.chk
%mem=8GB
%nprocshared=4
# B3LYP/6-311++G(d,p) empiricaldispersion=gd3bj scf=xqc pop=npa geom=check

CID_60686743_JID_10730_Energie_neutraal

0 1

--Link1--
%chk=JID_10730.chk
%mem=8GB
%nprocshared=4
# B3LYP/6-311++G(d,p) empiricaldispersion=gd3bj scf=xqc pop=npa geom=check

CID_60686743_JID_10730_Energie_kation

1 2

--Link1--
%chk=JID_10730.chk
%mem=8GB
%nprocshared=4
# B3LYP/6-311++G(d,p) empiricaldispersion=gd3bj scf=xqc pop=npa geom=check

CID_60686743_JID_10730_Energie_anion

-1 2
