%chk=JID_6877.chk
%mem=8GB
%nprocshared=4
# opt freq B3LYP/6-31G(d) empiricaldispersion=gd3bj scf=xqc

CID_81731685_JID_6877_neutraal

0 1
C         -2.54400       -0.01100       -0.02600
C         -1.05611        0.01183        0.19716
C         -0.27019        1.19114        0.04810
C          1.12561        1.10651        0.27110
N          1.69735       -0.09243        0.54210
C          0.93534       -1.19332        0.66342
C         -0.42917       -1.19192        0.51393
N          1.99384        2.20938        0.17518
C          1.69066        3.31601        1.08471
C          3.42810        1.87464        0.03053
C          4.24381        1.85693        1.32677
C          3.96295        0.84325        2.47404
C          5.48644        0.81481        2.71393
C          5.64437        1.18831        1.22450
C         -0.93477        2.46291       -0.42982
N         -1.56932        3.21562        0.65399
H         -3.04968        0.71069        0.62029
H         -2.77709        0.20183       -1.07379
H         -2.96954       -0.99343        0.20788
H          1.47666       -2.10625        0.89048
H         -0.98449       -2.11715        0.62156
H          1.45238        2.96267        2.09419
H          2.54111        4.00293        1.16075
H          0.87992        3.94303        0.71492
H          3.56756        0.94423       -0.53560
H          3.86109        2.64772       -0.61885
H          4.34280        2.87918        1.72325
H          3.35917        1.22224        3.30260
H          3.57686       -0.13181        2.16505
H          5.90251       -0.15060        3.01176
H          5.84107        1.58756        3.40556
H          5.68694        0.31805        0.55855
H          6.47643        1.85650        0.98914
H         -0.22378        3.10102       -0.96500
H         -1.69165        2.22244       -1.18537
H         -2.11081        3.97771        0.25197
H         -2.22699        2.61722        1.14654

--Link1--
%chk=JID_6877.chk
%mem=8GB
%nprocshared=4
# B3LYP/6-311++G(d,p) empiricaldispersion=gd3bj scf=xqc pop=npa geom=check

CID_81731685_JID_6877_Energie_neutraal

0 1

--Link1--
%chk=JID_6877.chk
%mem=8GB
%nprocshared=4
# B3LYP/6-311++G(d,p) empiricaldispersion=gd3bj scf=xqc pop=npa geom=check

CID_81731685_JID_6877_Energie_kation

1 2

--Link1--
%chk=JID_6877.chk
%mem=8GB
%nprocshared=4
# B3LYP/6-311++G(d,p) empiricaldispersion=gd3bj scf=xqc pop=npa geom=check

CID_81731685_JID_6877_Energie_anion

-1 2
