%chk=JID_8102.chk
%mem=8GB
%nprocshared=4
# opt freq B3LYP/6-31G(d) empiricaldispersion=gd3bj scf=xqc

CID_64417368_JID_8102_neutraal

0 1
C          1.08295        0.00686       -0.05543
C          0.00204       -0.04013       -1.14529
C          0.52284       -0.78839       -2.37974
N         -1.30000       -0.58000       -0.71813
C         -1.96638        0.22109        0.31487
C         -1.85795       -0.58319        1.59531
C         -1.97366       -2.01704        1.10133
C         -1.28638       -1.98011       -0.26736
C         -1.33390       -3.06189        2.02253
N         -1.95888       -3.06804        3.34026
C         -1.50649       -4.09218        4.29835
C          0.00669       -4.35872        4.37580
C          0.53762       -5.37752        3.36284
C         -0.27310       -6.69030        3.31344
C         -1.77762       -6.38662        3.14875
C         -2.31550       -5.39306        4.17578
C         -0.02554       -7.51964        4.58878
C          0.19905       -7.52470        2.10711
H          1.32460       -0.98456        0.33896
H          0.78224        0.64524        0.78073
H          2.00914        0.43037       -0.46046
H         -0.16968        0.99332       -1.47585
H          0.80762       -1.82044       -2.15078
H         -0.23326       -0.81051       -3.17242
H          1.40760       -0.28516       -2.78568
H         -3.02237        0.32454        0.03618
H         -1.56799        1.23520        0.42675
H         -0.89214       -0.40979        2.08311
H         -2.64948       -0.32489        2.30573
H         -3.03710       -2.25466        0.95652
H         -0.27645       -2.39818       -0.20578
H         -1.83813       -2.60094       -0.98251
H         -1.43473       -4.03520        1.53795
H         -0.26625       -2.83407        2.11748
H         -1.81981       -2.15120        3.76530
H         -1.78725       -3.67036        5.27400
H          0.23565       -4.72659        5.38459
H          0.56565       -3.41920        4.28272
H          1.58636       -5.59594        3.60392
H          0.56093       -4.92623        2.36550
H         -1.97478       -6.00483        2.14127
H         -2.35535       -7.31709        3.22542
H         -2.33351       -5.88071        5.15913
H         -3.36561       -5.16833        3.94853
H         -0.32527       -6.98873        5.49695
H         -0.58539       -8.46134        4.55918
H          1.03636       -7.77062        4.69273
H         -0.35077       -8.47032        2.04063
H          0.04478       -6.98473        1.16591
H          1.26619       -7.76188        2.18251

--Link1--
%chk=JID_8102.chk
%mem=8GB
%nprocshared=4
# B3LYP/6-311++G(d,p) empiricaldispersion=gd3bj scf=xqc pop=npa geom=check

CID_64417368_JID_8102_Energie_neutraal

0 1

--Link1--
%chk=JID_8102.chk
%mem=8GB
%nprocshared=4
# B3LYP/6-311++G(d,p) empiricaldispersion=gd3bj scf=xqc pop=npa geom=check

CID_64417368_JID_8102_Energie_kation

1 2

--Link1--
%chk=JID_8102.chk
%mem=8GB
%nprocshared=4
# B3LYP/6-311++G(d,p) empiricaldispersion=gd3bj scf=xqc pop=npa geom=check

CID_64417368_JID_8102_Energie_anion

-1 2
