%chk=JID_4957.chk
%mem=8GB
%nprocshared=4
# opt freq B3LYP/6-31G(d) empiricaldispersion=gd3bj scf=xqc

CID_104887209_JID_4957_neutraal

0 1
C          0.93662        0.07617        0.01348
C          1.39383       -1.18333        0.72675
N          2.09026       -0.83553        1.95703
C          3.35927       -0.60644        1.97662
N          4.21519       -0.63758        0.88221
N          5.36125       -1.48552        1.03637
N          4.00128       -0.30904        3.17418
C          4.95046        0.83233        3.25075
C          4.34820        2.01530        4.04365
C          2.99353        2.46703        3.50496
C          1.99158        1.63214        4.29368
C          2.86706        0.73486        5.15903
C          3.31600       -0.57056        4.46400
O          4.04115        1.55366        5.37944
H          0.29755        0.68238        0.66421
H          0.36672       -0.17972       -0.88490
H          1.78789        0.69546       -0.28635
H          0.51375       -1.77931        0.99368
H          1.99239       -1.81849        0.06509
H          3.73950       -0.76681       -0.00757
H          5.76849       -1.28622        1.95655
H          5.03882       -2.45369        1.13091
H          5.85050        0.47662        3.76620
H          5.25241        1.18432        2.25867
H          5.06651        2.83865        4.10246
H          2.89939        2.34670        2.42154
H          2.83333        3.52787        3.73066
H          1.28570        1.08395        3.66530
H          1.40304        2.30091        4.93355
H          2.40058        0.51017        6.12306
H          2.46700       -1.25283        4.34778
H          4.04170       -1.07814        5.11152

--Link1--
%chk=JID_4957.chk
%mem=8GB
%nprocshared=4
# B3LYP/6-311++G(d,p) empiricaldispersion=gd3bj scf=xqc pop=npa geom=check

CID_104887209_JID_4957_Energie_neutraal

0 1

--Link1--
%chk=JID_4957.chk
%mem=8GB
%nprocshared=4
# B3LYP/6-311++G(d,p) empiricaldispersion=gd3bj scf=xqc pop=npa geom=check

CID_104887209_JID_4957_Energie_kation

1 2

--Link1--
%chk=JID_4957.chk
%mem=8GB
%nprocshared=4
# B3LYP/6-311++G(d,p) empiricaldispersion=gd3bj scf=xqc pop=npa geom=check

CID_104887209_JID_4957_Energie_anion

-1 2
