%chk=JID_5305.chk
%mem=8GB
%nprocshared=4
# opt freq B3LYP/6-31G(d) empiricaldispersion=gd3bj scf=xqc

CID_64534607_JID_5305_neutraal

0 1
C          0.94422        0.03528       -0.07513
C          0.36061       -1.29156        0.38906
C          0.92588       -1.77791        1.72730
N          0.55484       -0.87365        2.81527
C          0.94473       -1.38421        4.14851
C          2.45173       -1.30618        4.33290
C          3.27399       -0.19271        4.34175
C          4.64538       -0.52642        4.53541
C          4.83120       -1.88311        4.66993
S          3.36088       -2.74661        4.56498
C          0.20284       -0.58334        5.27703
C         -1.32040       -0.57326        5.10645
O          0.55014       -0.99520        6.61171
C          0.21372       -2.32757        6.98501
C         -0.78222       -2.28484        8.12881
H          0.66290        0.85556        0.59192
H          0.57121        0.27939       -1.07505
H          2.03670       -0.01254       -0.12392
H         -0.73113       -1.20592        0.45163
H          0.57274       -2.05120       -0.37301
H          0.51860       -2.77744        1.92056
H          2.01451       -1.87066        1.64413
H          0.98687        0.03733        2.67196
H          0.62310       -2.43030        4.21969
H          2.90858        0.81978        4.22073
H          5.45378        0.19294        4.57811
H          5.76120       -2.41129        4.82876
H          0.52764        0.46410        5.22054
H         -1.72811       -1.58831        5.06638
H         -1.79557       -0.06838        5.95437
H         -1.61906       -0.05236        4.19173
H         -0.18979       -2.91784        6.15792
H          1.13297       -2.81446        7.32606
H         -1.71615       -1.80912        7.81353
H         -1.00831       -3.29385        8.48497
H         -0.38971       -1.69416        8.96291

--Link1--
%chk=JID_5305.chk
%mem=8GB
%nprocshared=4
# B3LYP/6-311++G(d,p) empiricaldispersion=gd3bj scf=xqc pop=npa geom=check

CID_64534607_JID_5305_Energie_neutraal

0 1

--Link1--
%chk=JID_5305.chk
%mem=8GB
%nprocshared=4
# B3LYP/6-311++G(d,p) empiricaldispersion=gd3bj scf=xqc pop=npa geom=check

CID_64534607_JID_5305_Energie_kation

1 2

--Link1--
%chk=JID_5305.chk
%mem=8GB
%nprocshared=4
# B3LYP/6-311++G(d,p) empiricaldispersion=gd3bj scf=xqc pop=npa geom=check

CID_64534607_JID_5305_Energie_anion

-1 2
