%chk=JID_299.chk
%mem=8GB
%nprocshared=4
# opt freq B3LYP/6-31G(d) empiricaldispersion=gd3bj scf=xqc

CID_79947426_JID_299_neutraal

0 1
C          0.90746        0.01911       -0.03273
C          0.20430       -0.41769        1.26765
C         -1.11734        0.36053        1.51115
C         -2.35681        0.00925        0.65365
C         -2.67002       -1.49658        0.73027
S         -1.29495       -2.53619        0.14180
C         -0.01614       -1.94429        1.28973
N         -2.30264        0.42249       -0.76418
N         -2.09915        1.84412       -0.88288
C          1.16719       -0.06617        2.42853
H          1.00146        1.10969       -0.08236
H          0.39216       -0.31453       -0.93462
H          1.92034       -0.39815       -0.08603
H         -1.41545        0.19205        2.55706
H         -0.91921        1.43894        1.45126
H         -3.21672        0.52696        1.10165
H         -3.55704       -1.73397        0.13194
H         -2.90043       -1.78324        1.76266
H          0.91583       -2.46763        1.04700
H         -0.30726       -2.27404        2.29413
H         -1.58182       -0.12873       -1.24196
H         -2.03507        2.11766       -1.86852
H         -2.91140        2.35849       -0.52822
H          2.12462       -0.58934        2.32333
H          1.37561        1.00948        2.45747
H          0.74263       -0.34924        3.39850

--Link1--
%chk=JID_299.chk
%mem=8GB
%nprocshared=4
# B3LYP/6-311++G(d,p) empiricaldispersion=gd3bj scf=xqc pop=npa geom=check

CID_79947426_JID_299_Energie_neutraal

0 1

--Link1--
%chk=JID_299.chk
%mem=8GB
%nprocshared=4
# B3LYP/6-311++G(d,p) empiricaldispersion=gd3bj scf=xqc pop=npa geom=check

CID_79947426_JID_299_Energie_kation

1 2

--Link1--
%chk=JID_299.chk
%mem=8GB
%nprocshared=4
# B3LYP/6-311++G(d,p) empiricaldispersion=gd3bj scf=xqc pop=npa geom=check

CID_79947426_JID_299_Energie_anion

-1 2
