%chk=JID_10722.chk
%mem=8GB
%nprocshared=4
# opt=(cartesian,calcfc,maxcycle=500) freq B3LYP/6-31G(d) empiricaldispersion=gd3bj scf=xqc

CID_104889971_JID_10722_neutraal

0 1
S       2.9420  0.6213  -0.3008
O       -0.3390 -2.3523 -0.5011
O       3.2905  0.4999  -1.7106
O       3.7402  1.4849  0.5590
N       2.8967  -0.9421 0.3879
N       0.2511  -1.6121 1.5529
N       -3.8490 2.7180  0.2087
C       2.0439  -1.9807 -0.2076
C       1.2779  1.1352  -0.1760
C       0.6484  -1.9601 0.3499
C       -1.4703 -2.2372 0.2488
C       -2.7390 -2.5933 -0.3942
C       0.8408  1.8133  0.9621
C       0.3858  0.8679  -1.2144
C       -1.1077 -1.7878 1.4941
C       -0.4885 2.2239  1.0615
C       -0.9434 1.2786  -1.1148
C       -3.2569 -1.5109 -1.3537
C       -1.3806 1.9567  0.0230
C       -2.7428 2.3768  0.1255
H       2.4929  -2.9546 0.0159
H       2.0264  -1.8826 -1.2979
H       3.1318  -1.0555 1.3816
H       -3.5026 -2.7795 0.3702
H       -2.6185 -3.5306 -0.9501
H       1.5158  2.0249  1.7864
H       0.7036  0.3411  -2.1098
H       -1.7432 -1.5815 2.3425
H       -0.8151 2.7492  1.9558
H       -1.6245 1.0702  -1.9360
H       -3.4468 -0.5753 -0.8193
H       -4.1949 -1.8358 -1.8148
H       -2.5337 -1.3145 -2.1516

--Link1--
%chk=JID_10722.chk
%mem=8GB
%nprocshared=4
# B3LYP/6-311++G(d,p) empiricaldispersion=gd3bj scf=xqc pop=npa geom=check

CID_104889971_JID_10722_Energie_neutraal

0 1

--Link1--
%chk=JID_10722.chk
%mem=8GB
%nprocshared=4
# B3LYP/6-311++G(d,p) empiricaldispersion=gd3bj scf=xqc pop=npa geom=check

CID_104889971_JID_10722_Energie_kation

1 2

--Link1--
%chk=JID_10722.chk
%mem=8GB
%nprocshared=4
# B3LYP/6-311++G(d,p) empiricaldispersion=gd3bj scf=xqc pop=npa geom=check

CID_104889971_JID_10722_Energie_anion

-1 2
