%chk=JID_7378.chk
%mem=8GB
%nprocshared=4
# opt freq B3LYP/6-31G(d) empiricaldispersion=gd3bj scf=xqc

CID_114677475_JID_7378_neutraal

0 1
C          0.93328        0.04198       -0.06153
C          0.25809        1.19199        0.69577
C          1.09809        2.47732        0.62248
N          1.03535        3.06416       -0.71690
C         -0.31632        3.41707       -1.15596
C         -1.20579        2.17881       -1.16217
C         -1.17411        1.48910        0.20555
O         -1.96640        0.30600        0.17532
C          2.15726        2.98992       -1.53676
O          3.23047        2.53632       -1.12476
C          2.06614        3.47770       -2.96584
N          1.49409        2.46825       -3.83333
C          2.01719        1.23452       -4.11184
C          1.14013        0.64910       -4.98201
C          0.12689        1.60087       -5.19045
N          0.34012        2.72230       -4.49266
N          1.26018       -0.57810       -5.50421
H          0.97542        0.22420       -1.13918
H          0.39843       -0.89962        0.09941
H          1.95902       -0.10280        0.29455
H          0.20030        0.87551        1.74561
H          0.70114        3.22418        1.32123
H          2.13151        2.27924        0.92527
H         -0.32251        3.88968       -2.13723
H         -0.70511        4.15820       -0.44708
H         -0.88189        1.47868       -1.94132
H         -2.23642        2.45306       -1.41635
H         -1.65028        2.15627        0.93518
H         -1.68283       -0.23045       -0.58546
H          1.49872        4.40859       -3.04345
H          3.07547        3.68698       -3.33862
H          2.94036        0.89460       -3.66325
H         -0.75266        1.52929       -5.81553
H          0.66045       -0.90731       -6.25452
H          2.10628       -1.12739       -5.38534

--Link1--
%chk=JID_7378.chk
%mem=8GB
%nprocshared=4
# B3LYP/6-311++G(d,p) empiricaldispersion=gd3bj scf=xqc pop=npa geom=check

CID_114677475_JID_7378_Energie_neutraal

0 1

--Link1--
%chk=JID_7378.chk
%mem=8GB
%nprocshared=4
# B3LYP/6-311++G(d,p) empiricaldispersion=gd3bj scf=xqc pop=npa geom=check

CID_114677475_JID_7378_Energie_kation

1 2

--Link1--
%chk=JID_7378.chk
%mem=8GB
%nprocshared=4
# B3LYP/6-311++G(d,p) empiricaldispersion=gd3bj scf=xqc pop=npa geom=check

CID_114677475_JID_7378_Energie_anion

-1 2
