%chk=JID_9987.chk
%mem=8GB
%nprocshared=4
# opt freq B3LYP/6-31G(d) empiricaldispersion=gd3bj scf=xqc

CID_62753999_JID_9987_neutraal

0 1
C          1.09542        0.00167       -0.02988
N          0.27839       -1.20615       -0.16808
C         -0.19614       -1.70738        1.13904
C         -1.52013       -2.43197        1.03866
C         -2.66887       -1.72288        0.64569
C         -3.90312       -2.36459        0.54408
C         -4.00309       -3.72514        0.82224
C         -2.87218       -4.44307        1.21345
C         -1.63864       -3.79701        1.34370
O         -0.49826       -4.47714        1.68491
C         -0.64671       -5.29089        2.84487
C          0.86287       -2.16988       -0.94776
N          2.16058       -2.38682       -1.00351
C          2.43248       -3.43653       -1.85835
C          1.34340       -3.99288       -2.49246
S         -0.07286       -3.17110       -2.00290
C          1.27477       -5.07625       -3.42832
O          0.30088       -5.53976       -4.00264
O          2.49770       -5.60975       -3.65864
H          0.50690        0.80121        0.43394
H          1.41816        0.37277       -1.00995
H          1.98144       -0.17617        0.59115
H          0.57908       -2.31854        1.61903
H         -0.35749       -0.86375        1.82518
H         -2.59421       -0.66530        0.40081
H         -4.78104       -1.80630        0.22980
H         -4.95868       -4.23209        0.71738
H         -2.96368       -5.51099        1.38371
H          0.35576       -5.57154        3.18233
H         -1.13377       -4.74243        3.65885
H         -1.18997       -6.21211        2.61497
H          3.45937       -3.75782       -1.98616
H          2.30391       -6.32571       -4.29884

--Link1--
%chk=JID_9987.chk
%mem=8GB
%nprocshared=4
# B3LYP/6-311++G(d,p) empiricaldispersion=gd3bj scf=xqc pop=npa geom=check

CID_62753999_JID_9987_Energie_neutraal

0 1

--Link1--
%chk=JID_9987.chk
%mem=8GB
%nprocshared=4
# B3LYP/6-311++G(d,p) empiricaldispersion=gd3bj scf=xqc pop=npa geom=check

CID_62753999_JID_9987_Energie_kation

1 2

--Link1--
%chk=JID_9987.chk
%mem=8GB
%nprocshared=4
# B3LYP/6-311++G(d,p) empiricaldispersion=gd3bj scf=xqc pop=npa geom=check

CID_62753999_JID_9987_Energie_anion

-1 2
