%chk=JID_7075.chk
%mem=8GB
%nprocshared=4
# opt freq B3LYP/6-31G(d) empiricaldispersion=gd3bj scf=xqc

CID_113353694_JID_7075_neutraal

0 1
C          0.93764       -0.07037        0.03403
C          0.31925       -0.27842        1.41980
C          0.62851        0.88701        2.37803
C          0.10202        2.23896        1.90292
C         -1.42048        2.53032        2.02510
C         -1.03996        3.97319        2.41231
C          0.30405        3.40577        2.91026
N         -1.12365       -0.47460        1.27575
C         -1.85567       -1.33417        2.09432
C         -1.39146       -1.83103        3.31947
C         -2.23204       -2.61993        4.08193
C         -3.51463       -2.90875        3.68825
C         -4.03019       -2.41712        2.51365
C         -3.19384       -1.61684        1.72544
O         -4.17125       -3.69318        4.58267
C         -3.15257       -3.86448        5.58954
O         -1.91824       -3.18509        5.27987
H          0.46048        0.74983       -0.51226
H          0.81501       -0.97291       -0.57571
H          2.00935        0.13976        0.11039
H          0.78622       -1.18671        1.82123
H          0.22385        0.66573        3.37283
H          1.71715        0.95633        2.49902
H          0.49975        2.51179        0.91553
H         -1.99983        2.42877        1.10379
H         -1.92700        1.98346        2.82902
H         -1.66886        4.44465        3.17130
H         -0.94353        4.64977        1.55542
H          0.28804        3.10764        3.96534
H          1.17827        4.03811        2.73453
H         -1.45357       -0.47032        0.31429
H         -0.39768       -1.61859        3.69142
H         -5.04905       -2.63160        2.21395
H         -3.59645       -1.20116        0.80407
H         -3.53401       -3.48098        6.54291
H         -2.94510       -4.93518        5.69952

--Link1--
%chk=JID_7075.chk
%mem=8GB
%nprocshared=4
# B3LYP/6-311++G(d,p) empiricaldispersion=gd3bj scf=xqc pop=npa geom=check

CID_113353694_JID_7075_Energie_neutraal

0 1

--Link1--
%chk=JID_7075.chk
%mem=8GB
%nprocshared=4
# B3LYP/6-311++G(d,p) empiricaldispersion=gd3bj scf=xqc pop=npa geom=check

CID_113353694_JID_7075_Energie_kation

1 2

--Link1--
%chk=JID_7075.chk
%mem=8GB
%nprocshared=4
# B3LYP/6-311++G(d,p) empiricaldispersion=gd3bj scf=xqc pop=npa geom=check

CID_113353694_JID_7075_Energie_anion

-1 2
