%chk=JID_4837.chk
%mem=8GB
%nprocshared=4
# opt freq B3LYP/6-31G(d) empiricaldispersion=gd3bj scf=xqc

CID_117155781_JID_4837_neutraal

0 1
C          1.00395       -0.00271       -0.09989
C          0.40447       -0.68546        1.13255
C          0.74179        0.12317        2.38723
C         -1.12070       -0.85595        1.01276
C         -1.52758       -1.76864       -0.09253
C         -1.49174       -3.14652       -0.14036
N         -1.95543       -3.46783       -1.38225
C         -2.16454       -4.79892       -1.92402
C         -2.39895       -4.78562       -3.43836
C         -3.35245       -3.65552       -3.84144
C         -2.78559       -2.29369       -3.43486
C         -2.27223       -2.30430       -2.03619
N         -2.02100       -1.26173       -1.27413
O         -3.29133       -5.38238       -1.26830
H          0.54688        0.97766       -0.27231
H          0.86126       -0.60798       -1.00063
H          2.08202        0.14529        0.02564
H          0.87125       -1.67396        1.23354
H          0.30767        1.12785        2.34156
H          0.35712       -0.37235        3.28487
H          1.82580        0.22755        2.50341
H         -1.51946       -1.25707        1.95356
H         -1.59640        0.12264        0.86902
H         -1.18594       -3.89204        0.58040
H         -1.28305       -5.40245       -1.68332
H         -2.81537       -5.74511       -3.76538
H         -1.44257       -4.64198       -3.95669
H         -3.52136       -3.67505       -4.92396
H         -4.32761       -3.80999       -3.36280
H         -1.96086       -2.02411       -4.10545
H         -3.55818       -1.52482       -3.54445
H         -3.93692       -4.67198       -1.10504

--Link1--
%chk=JID_4837.chk
%mem=8GB
%nprocshared=4
# B3LYP/6-311++G(d,p) empiricaldispersion=gd3bj scf=xqc pop=npa geom=check

CID_117155781_JID_4837_Energie_neutraal

0 1

--Link1--
%chk=JID_4837.chk
%mem=8GB
%nprocshared=4
# B3LYP/6-311++G(d,p) empiricaldispersion=gd3bj scf=xqc pop=npa geom=check

CID_117155781_JID_4837_Energie_kation

1 2

--Link1--
%chk=JID_4837.chk
%mem=8GB
%nprocshared=4
# B3LYP/6-311++G(d,p) empiricaldispersion=gd3bj scf=xqc pop=npa geom=check

CID_117155781_JID_4837_Energie_anion

-1 2
