%chk=JID_3019.chk
%mem=8GB
%nprocshared=4
# opt freq B3LYP/6-31G(d) empiricaldispersion=gd3bj scf=xqc

CID_105147560_JID_3019_neutraal

0 1
C         -1.10600       -0.72000       -0.20700
C          0.29516       -1.15423        0.16647
O          1.14051       -0.00835        0.00392
C          0.30973        1.14754       -0.19578
C         -1.10248        0.74211        0.20564
C         -2.20186        1.59512       -0.44847
C         -3.59486        1.11673       -0.10770
C         -4.47830        0.75070       -1.11523
N         -5.73362        0.31368       -0.87747
N         -6.17678        0.22183        0.40292
C         -5.35502        0.57018        1.41189
C         -4.06483        1.02063        1.20294
N         -2.04146        3.00374       -0.07886
H         -1.24726       -0.81435       -1.29070
H         -1.87292       -1.31974        0.29112
H          0.34820       -1.46256        1.21602
H          0.66080       -1.97472       -0.45722
H          0.37771        1.42316       -1.25405
H          0.69734        1.97492        0.40602
H         -1.17536        0.78756        1.30179
H         -2.06930        1.54085       -1.53704
H         -4.20923        0.79392       -2.16550
H         -5.77445        0.47348        2.40684
H         -3.44540        1.28770        2.05193
H         -2.78003        3.55576       -0.51631
H         -2.16142        3.12171        0.92577

--Link1--
%chk=JID_3019.chk
%mem=8GB
%nprocshared=4
# B3LYP/6-311++G(d,p) empiricaldispersion=gd3bj scf=xqc pop=npa geom=check

CID_105147560_JID_3019_Energie_neutraal

0 1

--Link1--
%chk=JID_3019.chk
%mem=8GB
%nprocshared=4
# B3LYP/6-311++G(d,p) empiricaldispersion=gd3bj scf=xqc pop=npa geom=check

CID_105147560_JID_3019_Energie_kation

1 2

--Link1--
%chk=JID_3019.chk
%mem=8GB
%nprocshared=4
# B3LYP/6-311++G(d,p) empiricaldispersion=gd3bj scf=xqc pop=npa geom=check

CID_105147560_JID_3019_Energie_anion

-1 2
