%chk=JID_733.chk
%mem=8GB
%nprocshared=4
# opt freq B3LYP/6-31G(d) empiricaldispersion=gd3bj scf=xqc

CID_105551480_JID_733_neutraal

0 1
C          0.92640        0.06675       -0.01130
C          0.11819       -0.94253        0.79683
N          0.42001       -0.88952        2.22907
C          0.05706        0.38563        2.86011
C         -0.10775        0.07049        4.34892
C         -0.12958       -1.46788        4.44734
C         -0.32665       -1.90213        2.98457
C         -1.30319       -1.95313        5.30967
C          1.18698       -2.03223        5.05319
N          2.41316       -1.55336        4.42115
H          0.64839        1.09671        0.23337
H          0.74506       -0.08029       -1.08107
H          2.00018       -0.05387        0.16695
H         -0.95096       -0.78379        0.60817
H          0.36532       -1.94341        0.42178
H          0.82834        1.14654        2.70375
H         -0.89296        0.77237        2.46948
H         -1.03943        0.51768        4.71525
H          0.70785        0.50795        4.93565
H         -1.39061       -1.88759        2.71233
H          0.06008       -2.90985        2.79669
H         -1.35257       -3.04744        5.32764
H         -1.20522       -1.60064        6.34241
H         -2.26084       -1.58430        4.92498
H          1.24259       -1.78292        6.11931
H          1.16612       -3.12714        4.98579
H          3.14311       -2.25870        4.49706
H          2.23308       -1.42021        3.41953

--Link1--
%chk=JID_733.chk
%mem=8GB
%nprocshared=4
# B3LYP/6-311++G(d,p) empiricaldispersion=gd3bj scf=xqc pop=npa geom=check

CID_105551480_JID_733_Energie_neutraal

0 1

--Link1--
%chk=JID_733.chk
%mem=8GB
%nprocshared=4
# B3LYP/6-311++G(d,p) empiricaldispersion=gd3bj scf=xqc pop=npa geom=check

CID_105551480_JID_733_Energie_kation

1 2

--Link1--
%chk=JID_733.chk
%mem=8GB
%nprocshared=4
# B3LYP/6-311++G(d,p) empiricaldispersion=gd3bj scf=xqc pop=npa geom=check

CID_105551480_JID_733_Energie_anion

-1 2
