%chk=JID_8395.chk
%mem=8GB
%nprocshared=4
# opt freq B3LYP/6-31G(d) empiricaldispersion=gd3bj scf=xqc

CID_58169772_JID_8395_neutraal

0 1
C          1.05169       -0.01387        0.08448
C          0.63116       -0.53261       -1.29230
C          1.10260       -1.98006       -1.46246
C         -0.89624       -0.45773       -1.50180
C         -1.51344        0.92216       -1.45773
C         -0.95784        2.00591       -2.14407
C         -1.57124        3.26665       -2.11759
C         -2.76726        3.48269       -1.42216
C         -3.32908        2.38145       -0.75837
C         -2.71676        1.12294       -0.77388
N         -3.43557        4.72423       -1.37413
C         -3.41623        5.30980       -0.01419
C         -4.55569        6.29308        0.14294
S         -4.39074        7.59241       -1.04804
O         -5.64539        8.32179       -1.08647
O         -3.14720        8.29558       -0.79294
C         -4.23173        6.70778       -2.57279
C         -3.12609        5.68138       -2.45369
H          0.55953       -0.57419        0.88676
H          0.80050        1.04423        0.20693
H          2.13421       -0.11095        0.22073
H          1.14007        0.06860       -2.05477
H          0.64401       -2.63845       -0.71658
H          0.84211       -2.35981       -2.45606
H          2.18999       -2.05067       -1.35308
H         -1.15068       -0.89285       -2.47742
H         -1.38065       -1.09380       -0.74851
H         -0.03920        1.88950       -2.71338
H         -1.07622        4.07395       -2.64857
H         -4.27694        2.49159       -0.23680
H         -3.19983        0.29899       -0.25339
H         -2.44821        5.79429        0.16790
H         -3.53779        4.54305        0.76046
H         -4.55302        6.75099        1.13617
H         -5.52592        5.81410       -0.02435
H         -5.19735        6.23658       -2.78267
H         -4.01464        7.43667       -3.35889
H         -2.16019        6.16874       -2.26970
H         -3.06369        5.16190       -3.41822

--Link1--
%chk=JID_8395.chk
%mem=8GB
%nprocshared=4
# B3LYP/6-311++G(d,p) empiricaldispersion=gd3bj scf=xqc pop=npa geom=check

CID_58169772_JID_8395_Energie_neutraal

0 1

--Link1--
%chk=JID_8395.chk
%mem=8GB
%nprocshared=4
# B3LYP/6-311++G(d,p) empiricaldispersion=gd3bj scf=xqc pop=npa geom=check

CID_58169772_JID_8395_Energie_kation

1 2

--Link1--
%chk=JID_8395.chk
%mem=8GB
%nprocshared=4
# B3LYP/6-311++G(d,p) empiricaldispersion=gd3bj scf=xqc pop=npa geom=check

CID_58169772_JID_8395_Energie_anion

-1 2
