%chk=JID_8676.chk
%mem=8GB
%nprocshared=4
# opt freq B3LYP/6-31G(d) empiricaldispersion=gd3bj scf=xqc

CID_116832096_JID_8676_neutraal

0 1
C          1.07219        0.05477        0.04231
C          1.07072       -1.17205       -0.85818
C          1.03394       -2.45827       -0.10967
C          0.42257       -3.65352       -0.44456
O          0.64448       -4.53069        0.58445
C          1.40869       -3.82900        1.46199
N          1.66382       -2.59454        1.11017
N          1.77857       -4.46967        2.57010
C         -0.33992       -4.16460       -1.57151
C         -1.47102       -4.96832       -1.34258
C         -2.15915       -5.39739       -2.47149
C         -1.80070       -5.10288       -3.77598
C         -0.66527       -4.31841       -4.00417
C          0.05241       -3.85374       -2.88826
N         -2.69229       -5.67600       -4.64596
C         -3.55125       -6.28567       -3.85149
O         -3.28899       -6.16168       -2.51205
C         -4.75067       -7.06648       -4.21244
H          0.19932        0.06126        0.70390
H          1.05009        0.96768       -0.56131
H          1.97049        0.08703        0.66806
H          0.20077       -1.10797       -1.52232
H          1.96322       -1.15653       -1.49402
H          1.23644       -5.28130        2.83419
H          2.07184       -3.88433        3.34186
H         -1.80595       -5.23234       -0.34661
H         -0.35431       -4.07952       -5.01507
H          0.94279       -3.25222       -3.06573
H         -4.71149       -8.06276       -3.76249
H         -5.65449       -6.56013       -3.86093
H         -4.82315       -7.18307       -5.29783

--Link1--
%chk=JID_8676.chk
%mem=8GB
%nprocshared=4
# B3LYP/6-311++G(d,p) empiricaldispersion=gd3bj scf=xqc pop=npa geom=check

CID_116832096_JID_8676_Energie_neutraal

0 1

--Link1--
%chk=JID_8676.chk
%mem=8GB
%nprocshared=4
# B3LYP/6-311++G(d,p) empiricaldispersion=gd3bj scf=xqc pop=npa geom=check

CID_116832096_JID_8676_Energie_kation

1 2

--Link1--
%chk=JID_8676.chk
%mem=8GB
%nprocshared=4
# B3LYP/6-311++G(d,p) empiricaldispersion=gd3bj scf=xqc pop=npa geom=check

CID_116832096_JID_8676_Energie_anion

-1 2
