%chk=JID_8173.chk
%mem=8GB
%nprocshared=4
# opt freq B3LYP/6-31G(d) empiricaldispersion=gd3bj scf=xqc

CID_43710045_JID_8173_neutraal

0 1
C          2.49600       -0.00700       -0.12600
C          1.02640        0.41053       -0.05936
C          0.83659        1.80444       -0.67397
C         -0.63889        2.18773       -0.78627
C         -1.45541        1.14733       -1.59524
C         -1.33684       -0.19193       -0.80118
C          0.13188       -0.65177       -0.72130
N         -2.20013       -1.25839       -1.32265
C         -2.71342       -2.15469       -0.28527
C         -4.22511       -2.02835        0.02353
C         -5.12718       -2.47872       -1.13921
C         -5.26293       -1.44990       -2.26259
C         -5.40270       -0.04370       -1.76409
C         -5.13815        0.31613       -0.50098
C         -4.65147       -0.64223        0.54738
C         -1.04625        1.12616       -3.11116
C         -1.91278        0.20440       -3.97681
C         -1.11247        2.53164       -3.73541
H          2.84099       -0.08476       -1.16262
H          3.13031        0.72230        0.38876
H          2.64536       -0.97954        0.35466
H          0.74312        0.47082        1.00039
H          1.35200        2.54814       -0.05364
H          1.30874        1.85030       -1.66217
H         -0.73494        3.19198       -1.20949
H         -1.06077        2.26505        0.22524
H         -2.50545        1.46753       -1.55038
H         -1.66631        0.04049        0.22107
H          0.51030       -0.88996       -1.72329
H          0.20143       -1.57990       -0.13905
H         -1.67101       -1.81213       -1.99463
H         -2.52927       -3.18476       -0.61839
H         -2.14630       -2.05993        0.64997
H         -4.40015       -2.73892        0.84474
H         -4.77877       -3.43315       -1.55155
H         -6.12968       -2.67371       -0.73306
H         -4.40285       -1.50785       -2.93750
H         -6.14401       -1.70351       -2.86402
H         -5.72034        0.70772       -2.48209
H         -5.26363        1.35405       -0.20394
H         -5.47481       -0.77716        1.26115
H         -3.83363       -0.18242        1.11277
H         -0.01099        0.78073       -3.20944
H         -2.97821        0.37263       -3.79492
H         -1.72768        0.37642       -5.04341
H         -1.68021       -0.84800       -3.80596
H         -0.34989        3.19571       -3.31900
H         -0.92798        2.49345       -4.81483
H         -2.09605        2.98715       -3.57794

--Link1--
%chk=JID_8173.chk
%mem=8GB
%nprocshared=4
# B3LYP/6-311++G(d,p) empiricaldispersion=gd3bj scf=xqc pop=npa geom=check

CID_43710045_JID_8173_Energie_neutraal

0 1

--Link1--
%chk=JID_8173.chk
%mem=8GB
%nprocshared=4
# B3LYP/6-311++G(d,p) empiricaldispersion=gd3bj scf=xqc pop=npa geom=check

CID_43710045_JID_8173_Energie_kation

1 2

--Link1--
%chk=JID_8173.chk
%mem=8GB
%nprocshared=4
# B3LYP/6-311++G(d,p) empiricaldispersion=gd3bj scf=xqc pop=npa geom=check

CID_43710045_JID_8173_Energie_anion

-1 2
