%chk=JID_3022.chk
%mem=8GB
%nprocshared=4
# opt freq B3LYP/6-31G(d) empiricaldispersion=gd3bj scf=xqc

CID_115706840_JID_3022_neutraal

0 1
C          1.02904       -0.07591        0.05826
C          0.29849        0.37751       -1.21387
C          0.35841       -0.76624       -2.23846
C         -1.16960        0.82019       -0.91532
C         -1.21108        1.92174        0.12477
C         -0.52464        3.24919       -0.11430
C         -2.01401        3.20547        0.06120
N         -1.82474        1.17221       -2.17538
C         -3.12054        0.50770       -2.38432
C         -4.24905        1.18877       -1.60650
O         -4.59261        2.34813       -1.84811
N         -4.89568        0.50794       -0.61604
C         -4.67471       -0.84854       -0.18509
H          0.49128       -0.89101        0.55430
H          1.14060        0.74569        0.77221
H          2.03774       -0.43204       -0.17834
H          0.85634        1.22669       -1.63055
H         -0.22016       -1.63194       -1.89851
H         -0.03132       -0.45513       -3.21278
H          1.39232       -1.09218       -2.39688
H         -1.67036       -0.04688       -0.46731
H         -1.10323        1.49394        1.11939
H          0.07183        3.66235        0.69112
H         -0.14192        3.47259       -1.10388
H         -2.61801        3.46335       -0.79761
H         -2.42722        3.58447        0.99052
H         -1.93880        2.17959       -2.27163
H         -3.38336        0.59292       -3.44539
H         -3.05145       -0.56394       -2.18192
H         -5.60923        1.05764       -0.15184
H         -3.67455       -0.93446        0.24409
H         -5.42153       -1.09804        0.57233
H         -4.77376       -1.52560       -1.03692

--Link1--
%chk=JID_3022.chk
%mem=8GB
%nprocshared=4
# B3LYP/6-311++G(d,p) empiricaldispersion=gd3bj scf=xqc pop=npa geom=check

CID_115706840_JID_3022_Energie_neutraal

0 1

--Link1--
%chk=JID_3022.chk
%mem=8GB
%nprocshared=4
# B3LYP/6-311++G(d,p) empiricaldispersion=gd3bj scf=xqc pop=npa geom=check

CID_115706840_JID_3022_Energie_kation

1 2

--Link1--
%chk=JID_3022.chk
%mem=8GB
%nprocshared=4
# B3LYP/6-311++G(d,p) empiricaldispersion=gd3bj scf=xqc pop=npa geom=check

CID_115706840_JID_3022_Energie_anion

-1 2
