%chk=JID_1667.chk
%mem=8GB
%nprocshared=4
# opt freq B3LYP/6-31G(d) empiricaldispersion=gd3bj scf=xqc

CID_149625077_JID_1667_neutraal

0 1
C          0.92809        0.04658        0.05157
C          0.61536       -0.49386       -1.35091
C          1.84566       -1.26892       -1.84464
C         -0.67596       -1.37272       -1.38552
C         -1.84800       -0.66390       -0.68389
C         -1.09288       -1.73328       -2.84104
C         -1.56688       -3.19977       -3.09039
C         -2.75790       -3.57796       -2.19347
C         -2.03642       -3.29187       -4.56017
C         -0.43225       -4.22421       -2.85109
O          0.71884       -3.95174       -3.63867
H          0.98537       -0.76492        0.78483
H          0.16930        0.76150        0.38396
H          1.88580        0.57878        0.06144
H          0.47106        0.37000       -2.01308
H          1.99334       -2.18615       -1.26452
H          1.76239       -1.54145       -2.89926
H          2.75266       -0.66157       -1.74915
H         -0.46610       -2.28769       -0.82073
H         -1.99706        0.34373       -1.08702
H         -2.78623       -1.21157       -0.80417
H         -1.67267       -0.58045        0.39328
H         -1.89493       -1.04998       -3.15517
H         -0.27293       -1.52072       -3.53573
H         -3.58800       -2.87434       -2.31940
H         -3.13526       -4.57682       -2.44224
H         -2.48017       -3.59397       -1.13467
H         -1.25134       -2.98046       -5.25751
H         -2.32766       -4.31604       -4.81938
H         -2.90457       -2.64637       -4.73694
H         -0.11686       -4.22928       -1.80338
H         -0.76619       -5.24221       -3.08435
H          0.49732       -4.14381       -4.56506

--Link1--
%chk=JID_1667.chk
%mem=8GB
%nprocshared=4
# B3LYP/6-311++G(d,p) empiricaldispersion=gd3bj scf=xqc pop=npa geom=check

CID_149625077_JID_1667_Energie_neutraal

0 1

--Link1--
%chk=JID_1667.chk
%mem=8GB
%nprocshared=4
# B3LYP/6-311++G(d,p) empiricaldispersion=gd3bj scf=xqc pop=npa geom=check

CID_149625077_JID_1667_Energie_kation

1 2

--Link1--
%chk=JID_1667.chk
%mem=8GB
%nprocshared=4
# B3LYP/6-311++G(d,p) empiricaldispersion=gd3bj scf=xqc pop=npa geom=check

CID_149625077_JID_1667_Energie_anion

-1 2
