%chk=JID_6989.chk
%mem=8GB
%nprocshared=4
# opt freq B3LYP/6-31G(d) empiricaldispersion=gd3bj scf=xqc

CID_82068262_JID_6989_neutraal

0 1
C          0.93263       -0.02993       -0.06756
O         -0.40147       -0.13334        0.41696
C         -0.51638       -1.05866        1.50297
C         -0.56417       -2.44617        0.95253
N          0.35286       -3.37776        1.13960
C         -0.08302       -4.47714        0.43392
C          0.52893       -5.74566        0.30576
C         -0.11893       -6.70478       -0.48506
C         -1.33790       -6.42584       -1.10884
C         -1.95695       -5.17804       -0.97387
C         -1.29858       -4.21998       -0.19265
N         -1.58840       -2.91938        0.15820
C         -2.75607       -2.16428       -0.25757
O         -3.58538       -1.87864        0.86975
C         -4.36842       -2.99240        1.27828
N          1.76991       -6.04263        0.90318
H          0.94609        0.71420       -0.86867
H          1.27820       -0.98280       -0.47878
H          1.60570        0.30603        0.72716
H          0.31413       -0.93541        2.20742
H         -1.43964       -0.83227        2.04462
H          0.34045       -7.68004       -0.62665
H         -1.81067       -7.19392       -1.71778
H         -2.90191       -4.97589       -1.46576
H         -2.41244       -1.22230       -0.69338
H         -3.30897       -2.70764       -1.02984
H         -4.99893       -3.34345        0.45585
H         -3.73359       -3.80463        1.64307
H         -5.01615       -2.67005        2.09811
H          2.06744       -5.24277        1.46557
H          1.73277       -6.89366        1.45425

--Link1--
%chk=JID_6989.chk
%mem=8GB
%nprocshared=4
# B3LYP/6-311++G(d,p) empiricaldispersion=gd3bj scf=xqc pop=npa geom=check

CID_82068262_JID_6989_Energie_neutraal

0 1

--Link1--
%chk=JID_6989.chk
%mem=8GB
%nprocshared=4
# B3LYP/6-311++G(d,p) empiricaldispersion=gd3bj scf=xqc pop=npa geom=check

CID_82068262_JID_6989_Energie_kation

1 2

--Link1--
%chk=JID_6989.chk
%mem=8GB
%nprocshared=4
# B3LYP/6-311++G(d,p) empiricaldispersion=gd3bj scf=xqc pop=npa geom=check

CID_82068262_JID_6989_Energie_anion

-1 2
