%chk=JID_10042.chk
%mem=8GB
%nprocshared=4
# opt freq B3LYP/6-31G(d) empiricaldispersion=gd3bj scf=xqc

CID_43390425_JID_10042_neutraal

0 1
C          1.07211        0.00848        0.06876
C          0.23550       -0.60218        1.20258
C          0.66923        0.05873        2.52496
C         -1.27332       -0.28799        0.97447
O         -1.76882       -0.80694       -0.25525
N          0.44603       -2.06784        1.36400
C          0.30408       -2.94227        0.31257
O         -0.75903       -3.54412        0.18733
C          1.53971       -3.17643       -0.53112
C          1.34417       -4.21470       -1.63771
C          0.38121       -3.81270       -2.76127
C          0.66115       -2.48263       -3.38780
C         -0.20561       -1.40667       -3.39806
N          0.40455       -0.36256       -4.03512
C          1.65920       -0.73207       -4.45725
C          2.63395        0.00843       -5.13697
C          3.83465       -0.63372       -5.45061
C          4.04628       -1.96501       -5.10296
C          3.06016       -2.69057       -4.42398
C          1.84249       -2.06503       -4.08450
H          0.76068       -0.35845       -0.91089
H          2.13667       -0.21719        0.19566
H          0.96631        1.09940        0.04720
H          0.53204        1.14536        2.49491
H          0.09022       -0.32902        3.37120
H          1.72616       -0.14183        2.73629
H         -1.88692       -0.70049        1.78382
H         -1.43708        0.79520        0.95732
H         -1.74767       -1.78431       -0.19033
H         -0.21038       -2.38528        2.06874
H          1.90793       -2.24235       -0.95363
H          2.31952       -3.54440        0.14766
H          2.32745       -4.43639       -2.06875
H          0.98861       -5.15556       -1.19897
H          0.41729       -4.58050       -3.54459
H         -0.64748       -3.82557       -2.38158
H         -1.20055       -1.29188       -2.98614
H         -0.00308        0.55156       -4.17203
H          2.46877        1.04440       -5.41359
H          4.61241       -0.08570       -5.97724
H          4.98532       -2.44830       -5.36032
H          3.23844       -3.72885       -4.16311

--Link1--
%chk=JID_10042.chk
%mem=8GB
%nprocshared=4
# B3LYP/6-311++G(d,p) empiricaldispersion=gd3bj scf=xqc pop=npa geom=check

CID_43390425_JID_10042_Energie_neutraal

0 1

--Link1--
%chk=JID_10042.chk
%mem=8GB
%nprocshared=4
# B3LYP/6-311++G(d,p) empiricaldispersion=gd3bj scf=xqc pop=npa geom=check

CID_43390425_JID_10042_Energie_kation

1 2

--Link1--
%chk=JID_10042.chk
%mem=8GB
%nprocshared=4
# B3LYP/6-311++G(d,p) empiricaldispersion=gd3bj scf=xqc pop=npa geom=check

CID_43390425_JID_10042_Energie_anion

-1 2
