%chk=JID_3974.chk
%mem=8GB
%nprocshared=4
# opt=(cartesian,calcfc) freq B3LYP/6-31G(d) empiricaldispersion=gd3bj scf=xqc

CID_152897770_JID_3974_neutraal

0 1
C          0.90760        0.02571        0.02829
O          1.05720       -0.51368       -1.28383
C          0.41161        0.18857       -2.25420
O         -0.27311        1.18642       -2.04741
C          0.64387       -0.37116       -3.65014
C          1.06361       -1.82750       -3.68996
C          2.33526       -2.28486       -3.74773
C          2.66119       -3.75761       -3.81859
C          1.52878       -4.68396       -3.35300
C          0.16241       -4.10265       -3.54707
C         -0.03600       -2.78793       -3.71363
C          3.53128       -1.39329       -3.72126
O          3.51983       -0.22315       -3.36328
H          1.45629       -0.61621        0.72302
H         -0.14627        0.03297        0.32374
H          1.33245        1.03310        0.07901
H         -0.29547       -0.25120       -4.20617
H          1.36507        0.27466       -4.15895
H          3.55361       -3.98200       -3.22098
H          2.91490       -3.99733       -4.85973
H          1.60289       -5.63448       -3.89412
H          1.65473       -4.91731       -2.28849
H         -0.68588       -4.78145       -3.53267
H         -1.04959       -2.41402       -3.84199
H          4.46940       -1.87535       -4.04495

--Link1--
%chk=JID_3974.chk
%mem=8GB
%nprocshared=4
# B3LYP/6-311++G(d,p) empiricaldispersion=gd3bj scf=xqc pop=npa geom=check

CID_152897770_JID_3974_Energie_neutraal

0 1

--Link1--
%chk=JID_3974.chk
%mem=8GB
%nprocshared=4
# B3LYP/6-311++G(d,p) empiricaldispersion=gd3bj scf=xqc pop=npa geom=check

CID_152897770_JID_3974_Energie_kation

1 2

--Link1--
%chk=JID_3974.chk
%mem=8GB
%nprocshared=4
# B3LYP/6-311++G(d,p) empiricaldispersion=gd3bj scf=xqc pop=npa geom=check

CID_152897770_JID_3974_Energie_anion

-1 2
