%chk=JID_10237.chk
%mem=8GB
%nprocshared=4
# opt freq B3LYP/6-31G(d) empiricaldispersion=gd3bj scf=xqc

CID_115966964_JID_10237_neutraal

0 1
C          0.91768       -0.01326        0.05520
C         -0.49979        0.49334        0.28034
C         -0.71792        1.93314       -0.19175
N         -0.46533        2.03670       -1.63932
C         -0.77769        3.31600       -2.15009
C         -2.10397        3.51529       -2.59481
C         -2.55149        4.75407       -3.05487
C         -1.68497        5.83571       -3.06619
C         -0.37337        5.67023       -2.62437
C          0.09606        4.41687       -2.17214
S          1.82590        4.35819       -1.69137
O          2.31883        5.72366       -1.74854
O          1.97274        3.60423       -0.46480
N          2.62023        3.53580       -2.93888
C          2.48910        4.03861       -4.32000
C          1.88245        2.87021       -5.08118
C          2.53796        1.66292       -4.41759
C          2.59948        2.06037       -2.94482
C          1.77238        0.36608       -4.63143
O          1.73436        0.03571       -6.01330
H          1.13503       -0.12772       -1.01043
H          1.04347       -0.99476        0.52354
H          1.65478        0.66792        0.49144
H         -1.20205       -0.17688       -0.22978
H         -0.72850        0.43957        1.35127
H         -1.75694        2.20980        0.02873
H         -0.07486        2.60956        0.37768
H         -1.03424        1.33698       -2.11738
H         -2.81354        2.69007       -2.57583
H         -3.57826        4.87173       -3.39172
H         -2.02497        6.80796       -3.41430
H          0.28615        6.53682       -2.64393
H          3.49019        4.27582       -4.69726
H          1.87576        4.93783       -4.40829
H          0.79497        2.85160       -4.94066
H          2.08659        2.92655       -6.15442
H          3.55586        1.56125       -4.81741
H          1.75770        1.65924       -2.39078
H          3.51442        1.67903       -2.47953
H          2.24169       -0.46198       -4.08969
H          0.73869        0.45156       -4.27950
H          2.64699       -0.14222       -6.29910

--Link1--
%chk=JID_10237.chk
%mem=8GB
%nprocshared=4
# B3LYP/6-311++G(d,p) empiricaldispersion=gd3bj scf=xqc pop=npa geom=check

CID_115966964_JID_10237_Energie_neutraal

0 1

--Link1--
%chk=JID_10237.chk
%mem=8GB
%nprocshared=4
# B3LYP/6-311++G(d,p) empiricaldispersion=gd3bj scf=xqc pop=npa geom=check

CID_115966964_JID_10237_Energie_kation

1 2

--Link1--
%chk=JID_10237.chk
%mem=8GB
%nprocshared=4
# B3LYP/6-311++G(d,p) empiricaldispersion=gd3bj scf=xqc pop=npa geom=check

CID_115966964_JID_10237_Energie_anion

-1 2
