%chk=JID_8609.chk
%mem=8GB
%nprocshared=4
# opt freq B3LYP/6-31G(d) empiricaldispersion=gd3bj scf=xqc

CID_50854003_JID_8609_neutraal

0 1
C          1.08315       -0.05537        0.00457
C          0.42533       -0.77164        1.18413
C          0.77112       -0.09759        2.51147
N         -1.02004       -0.89426        1.00509
C         -1.70642       -2.08085        0.95125
C         -3.03985       -1.79206        0.75516
C         -3.16081       -0.38287        0.67015
C         -1.90571        0.14664        0.87244
C         -4.37540        0.34345        0.50619
C         -4.64052        1.42397       -0.25596
C         -3.69120        2.07653       -1.19581
O         -2.61279        1.61762       -1.55107
N         -4.12307        3.26313       -1.72375
C         -5.38140        3.77082       -1.65638
O         -5.71295        4.75980       -2.30138
N         -6.26141        3.11253       -0.85818
C         -6.01860        1.97633       -0.14108
O         -6.90257        1.47233        0.54497
H          0.76038        0.98898       -0.06731
H          0.83074       -0.54728       -0.94130
H          2.17334       -0.06266        0.10823
H          0.81910       -1.79587        1.21455
H          0.42639        0.94185        2.53954
H          0.30457       -0.62513        3.35075
H          1.85414       -0.09689        2.67374
H         -1.19880       -3.03099        1.05316
H         -3.83251       -2.52440        0.67103
H         -1.56295        1.17219        0.91010
H         -5.19386       -0.06682        1.10011
H         -3.49723        3.70800       -2.38016
H         -7.19643        3.49090       -0.80567

--Link1--
%chk=JID_8609.chk
%mem=8GB
%nprocshared=4
# B3LYP/6-311++G(d,p) empiricaldispersion=gd3bj scf=xqc pop=npa geom=check

CID_50854003_JID_8609_Energie_neutraal

0 1

--Link1--
%chk=JID_8609.chk
%mem=8GB
%nprocshared=4
# B3LYP/6-311++G(d,p) empiricaldispersion=gd3bj scf=xqc pop=npa geom=check

CID_50854003_JID_8609_Energie_kation

1 2

--Link1--
%chk=JID_8609.chk
%mem=8GB
%nprocshared=4
# B3LYP/6-311++G(d,p) empiricaldispersion=gd3bj scf=xqc pop=npa geom=check

CID_50854003_JID_8609_Energie_anion

-1 2
