%chk=JID_7442.chk
%mem=8GB
%nprocshared=4
# opt freq B3LYP/6-31G(d) empiricaldispersion=gd3bj scf=xqc

CID_130188321_JID_7442_neutraal

0 1
C          0.93994        0.03235        0.07312
C          0.30509        0.67980        1.30569
C          0.50217        2.19594        1.24735
C         -1.17751        0.29136        1.55133
C         -1.33434       -1.17388        1.96735
C         -2.17373       -1.80774        0.88135
N         -3.04449       -0.72111        0.40971
C         -2.16213        0.47622        0.35910
C         -2.91351        1.79280        0.50105
C         -3.88734        1.97731        1.49660
C         -4.55246        3.19759        1.62708
C         -4.25393        4.25103        0.76640
C         -3.29251        4.08507       -0.22808
C         -2.62779        2.86468       -0.35963
C         -3.70221       -1.08665       -0.86932
C         -4.65221       -2.28057       -0.66021
C         -4.52190        0.03871       -1.51415
H          0.53632        0.43705       -0.85978
H          0.79587       -1.05191        0.06871
H          2.02004        0.21767        0.06349
H          0.87197        0.32961        2.17986
H          0.09653        2.62358        0.32762
H          0.02646        2.68947        2.10107
H          1.56950        2.44196        1.27767
H         -1.50920        0.88189        2.41783
H         -1.87213       -1.22186        2.92322
H         -0.38488       -1.70077        2.10469
H         -1.52223       -2.17828        0.07981
H         -2.73889       -2.65096        1.29012
H         -1.61686        0.46451       -0.59105
H         -4.13421        1.15904        2.16996
H         -5.30560        3.32249        2.40057
H         -4.77237        5.20035        0.86822
H         -3.06064        4.90473       -0.90237
H         -1.88399        2.75309       -1.14555
H         -2.93947       -1.38715       -1.60054
H         -5.39606       -2.06415        0.11512
H         -5.19232       -2.51673       -1.58413
H         -4.11331       -3.18933       -0.37521
H         -3.87953        0.83897       -1.88956
H         -5.07819       -0.33511       -2.38174
H         -5.25203        0.45934       -0.81500

--Link1--
%chk=JID_7442.chk
%mem=8GB
%nprocshared=4
# B3LYP/6-311++G(d,p) empiricaldispersion=gd3bj scf=xqc pop=npa geom=check

CID_130188321_JID_7442_Energie_neutraal

0 1

--Link1--
%chk=JID_7442.chk
%mem=8GB
%nprocshared=4
# B3LYP/6-311++G(d,p) empiricaldispersion=gd3bj scf=xqc pop=npa geom=check

CID_130188321_JID_7442_Energie_kation

1 2

--Link1--
%chk=JID_7442.chk
%mem=8GB
%nprocshared=4
# B3LYP/6-311++G(d,p) empiricaldispersion=gd3bj scf=xqc pop=npa geom=check

CID_130188321_JID_7442_Energie_anion

-1 2
