%chk=JID_5869.chk
%mem=8GB
%nprocshared=4
# opt freq B3LYP/6-31G(d) empiricaldispersion=gd3bj scf=xqc

CID_66351662_JID_5869_neutraal

0 1
C          0.93788        0.04855       -0.06151
C          0.60128       -0.57316        1.29204
C          1.35837        0.08565        2.44525
N         -0.83409       -0.67074        1.53902
C         -1.47419       -1.87425        1.71617
N         -2.75685       -1.72352        1.94037
C         -2.96447       -0.37551        1.90728
C         -1.79189        0.31316        1.65444
C         -1.60221        1.78465        1.53724
N         -2.10283        2.31546        0.28061
C         -2.28295        3.64245        0.06246
C         -1.74884        4.66906        0.80877
S         -2.21871        6.21013        0.22461
C         -3.13087        5.50843       -1.04045
C         -3.07534        4.13125       -1.01438
H          0.68021        1.11076       -0.10173
H          0.39617       -0.45602       -0.86904
H          2.00981       -0.03921       -0.26865
H          0.96004       -1.61104        1.24667
H          1.15094        1.15529        2.52705
H          1.09429       -0.37764        3.40226
H          2.43901       -0.02655        2.30519
H         -0.95780       -2.82492        1.67390
H         -3.95139        0.04296        2.06305
H         -2.13703        2.25412        2.37406
H         -0.55285        2.06372        1.64772
H         -2.65723        1.64556       -0.24778
H         -1.10611        4.60972        1.67438
H         -3.66234        6.13684       -1.74161
H         -3.58931        3.51032       -1.73668

--Link1--
%chk=JID_5869.chk
%mem=8GB
%nprocshared=4
# B3LYP/6-311++G(d,p) empiricaldispersion=gd3bj scf=xqc pop=npa geom=check

CID_66351662_JID_5869_Energie_neutraal

0 1

--Link1--
%chk=JID_5869.chk
%mem=8GB
%nprocshared=4
# B3LYP/6-311++G(d,p) empiricaldispersion=gd3bj scf=xqc pop=npa geom=check

CID_66351662_JID_5869_Energie_kation

1 2

--Link1--
%chk=JID_5869.chk
%mem=8GB
%nprocshared=4
# B3LYP/6-311++G(d,p) empiricaldispersion=gd3bj scf=xqc pop=npa geom=check

CID_66351662_JID_5869_Energie_anion

-1 2
