%chk=JID_10889.chk
%mem=8GB
%nprocshared=4
# opt freq B3LYP/6-31G(d) empiricaldispersion=gd3bj scf=xqc

CID_107916696_JID_10889_neutraal

0 1
C          0.94968        0.07239        0.04719
C          0.13746       -1.13234        0.50164
C          0.62618       -1.75622        1.81728
C          0.53170       -0.85070        3.04958
C         -0.87655       -0.35293        3.44314
C         -2.09167       -1.26789        3.23706
C         -2.34872       -2.25641        4.35821
C          1.36347       -1.33931        4.24783
O          2.27760       -0.62761        4.67197
C          1.03217       -2.56884        4.95951
C          0.57205       -2.57395        6.26551
N          0.36428       -3.86816        6.64943
C          0.72919       -4.72462        5.63684
C          1.18746       -3.94073        4.57272
C          1.69374       -4.60757        3.43638
C          1.67657       -6.00833        3.37891
C          1.17962       -6.75943        4.44419
C          0.70364       -6.12617        5.59950
C          1.16633       -8.19183        4.36396
N          1.15100       -9.35015        4.30030
H          0.80929        0.92661        0.71560
H          0.63132        0.38230       -0.95346
H          2.01713       -0.16532        0.00441
H         -0.91591       -0.84493        0.57359
H          0.19715       -1.90030       -0.27940
H          0.06563       -2.68126        1.99018
H          1.67318       -2.05225        1.67676
H          1.07194        0.06858        2.77407
H         -0.86780        0.01478        4.47708
H         -1.06829        0.53533        2.82382
H         -2.97651       -0.62108        3.17208
H         -2.04761       -1.80299        2.28503
H         -2.30815       -1.77038        5.33771
H         -3.34587       -2.69569        4.24644
H         -1.63445       -3.07910        4.33070
H          0.36998       -1.75554        6.94499
H          0.02194       -4.15945        7.55559
H          2.11272       -4.05229        2.60336
H          2.06436       -6.50401        2.49002
H          0.33440       -6.70198        6.44417

--Link1--
%chk=JID_10889.chk
%mem=8GB
%nprocshared=4
# B3LYP/6-311++G(d,p) empiricaldispersion=gd3bj scf=xqc pop=npa geom=check

CID_107916696_JID_10889_Energie_neutraal

0 1

--Link1--
%chk=JID_10889.chk
%mem=8GB
%nprocshared=4
# B3LYP/6-311++G(d,p) empiricaldispersion=gd3bj scf=xqc pop=npa geom=check

CID_107916696_JID_10889_Energie_kation

1 2

--Link1--
%chk=JID_10889.chk
%mem=8GB
%nprocshared=4
# B3LYP/6-311++G(d,p) empiricaldispersion=gd3bj scf=xqc pop=npa geom=check

CID_107916696_JID_10889_Energie_anion

-1 2
