%chk=JID_3448.chk
%mem=8GB
%nprocshared=4
# opt freq B3LYP/6-31G(d) empiricaldispersion=gd3bj scf=xqc

CID_117915931_JID_3448_neutraal

0 1
C          1.04929        0.01732        0.08527
C          0.32995       -1.31360       -0.14113
C          0.71611       -2.30202        0.96308
C         -1.20149       -1.14899       -0.18089
C         -1.74425       -0.25982       -1.30759
C         -1.44607       -0.74920       -2.72962
C         -2.13873       -2.05857       -3.10427
O         -3.55731       -1.84585       -3.18582
C         -4.33781       -2.44122       -2.24532
O         -3.90250       -3.15326       -1.34825
N         -5.67992       -2.13317       -2.40390
C         -6.15401       -1.18226       -3.39403
C         -6.61754       -2.52779       -1.37113
H          0.69747        0.50891        0.99854
H          0.89322        0.70182       -0.75385
H          2.12971       -0.13668        0.17998
H          0.67585       -1.73736       -1.09081
H          0.40469       -1.94020        1.94882
H          0.24578       -3.27657        0.79417
H          1.80028       -2.45628        0.98535
H         -1.66583       -2.13907       -0.24737
H         -1.53857       -0.72533        0.77447
H         -2.82888       -0.16068       -1.17889
H         -1.34281        0.75392       -1.19605
H         -1.78562        0.03105       -3.42280
H         -0.36610       -0.85149       -2.87652
H         -1.81401       -2.35646       -4.10737
H         -1.86249       -2.87570       -2.43055
H         -7.14372       -1.48956       -3.74458
H         -6.22043       -0.19607       -2.92539
H         -5.48568       -1.12320       -4.25653
H         -6.20958       -3.31194       -0.72790
H         -6.84928       -1.65224       -0.75711
H         -7.53337       -2.89841       -1.84051

--Link1--
%chk=JID_3448.chk
%mem=8GB
%nprocshared=4
# B3LYP/6-311++G(d,p) empiricaldispersion=gd3bj scf=xqc pop=npa geom=check

CID_117915931_JID_3448_Energie_neutraal

0 1

--Link1--
%chk=JID_3448.chk
%mem=8GB
%nprocshared=4
# B3LYP/6-311++G(d,p) empiricaldispersion=gd3bj scf=xqc pop=npa geom=check

CID_117915931_JID_3448_Energie_kation

1 2

--Link1--
%chk=JID_3448.chk
%mem=8GB
%nprocshared=4
# B3LYP/6-311++G(d,p) empiricaldispersion=gd3bj scf=xqc pop=npa geom=check

CID_117915931_JID_3448_Energie_anion

-1 2
