%chk=JID_3841.chk
%mem=8GB
%nprocshared=4
# opt freq B3LYP/6-31G(d) empiricaldispersion=gd3bj scf=xqc

CID_57119046_JID_3841_neutraal

0 1
C          1.08890        0.00313       -0.04568
C          0.31298        0.14661       -1.34754
C          1.19898        0.05730       -2.58700
C          1.16091       -1.30027       -3.26356
O          0.68947       -1.41873       -4.39763
C          1.75416       -2.50354       -2.55532
C          3.27648       -2.56957       -2.68523
C          4.04553       -1.96161       -1.50514
C          3.96760       -2.77315       -0.20536
C          4.83706       -4.02876       -0.20145
C          6.23698       -3.74091        0.30423
O          6.47755       -3.68897        1.51071
C          7.30214       -3.43388       -0.71361
H          1.51984       -0.99326        0.06292
H          0.42208        0.16866        0.80681
H          1.89778        0.73833        0.01362
H         -0.49027       -0.59824       -1.38125
H         -0.16808        1.13250       -1.33555
H          0.82258        0.77653       -3.32661
H          2.23522        0.34395       -2.39079
H          1.39838       -2.54402       -1.52515
H          1.32574       -3.38651       -3.04804
H          3.57393       -3.61757       -2.80353
H          3.58965       -2.05647       -3.60315
H          5.09354       -1.84050       -1.79815
H          3.67203       -0.95267       -1.30811
H          4.26185       -2.12004        0.62586
H          2.93001       -3.06516       -0.01330
H          4.40566       -4.76604        0.48718
H          4.88747       -4.51584       -1.17923
H          7.21076       -4.10888       -1.56794
H          7.21184       -2.39657       -1.04149
H          8.28761       -3.58470       -0.26384

--Link1--
%chk=JID_3841.chk
%mem=8GB
%nprocshared=4
# B3LYP/6-311++G(d,p) empiricaldispersion=gd3bj scf=xqc pop=npa geom=check

CID_57119046_JID_3841_Energie_neutraal

0 1

--Link1--
%chk=JID_3841.chk
%mem=8GB
%nprocshared=4
# B3LYP/6-311++G(d,p) empiricaldispersion=gd3bj scf=xqc pop=npa geom=check

CID_57119046_JID_3841_Energie_kation

1 2

--Link1--
%chk=JID_3841.chk
%mem=8GB
%nprocshared=4
# B3LYP/6-311++G(d,p) empiricaldispersion=gd3bj scf=xqc pop=npa geom=check

CID_57119046_JID_3841_Energie_anion

-1 2
