%chk=JID_4269.chk
%mem=8GB
%nprocshared=4
# opt freq B3LYP/6-31G(d) empiricaldispersion=gd3bj scf=xqc

CID_115021690_JID_4269_neutraal

0 1
C          1.09597       -0.02589       -0.01091
C          0.24615       -0.12939        1.22622
O         -0.68625        0.65420        1.41344
C          0.52386       -1.26375        2.19625
C         -0.17281       -2.60106        1.83220
C         -1.68422       -2.42482        1.55806
C         -2.44817       -2.05218        2.82727
C         -2.17261       -3.05337        3.95008
N         -0.73166       -3.18688        4.21107
C         -0.00480       -3.60638        2.99964
C         -0.49846       -4.12954        5.30601
C          0.55936       -3.22558        0.65253
O          1.73949       -3.07014        0.37778
O         -0.18582       -4.05877       -0.09416
H          1.03117        0.99020       -0.41082
H          0.74007       -0.73014       -0.76543
H          2.14210       -0.22579        0.23340
H          1.61170       -1.38442        2.27530
H          0.20690       -0.90683        3.18404
H         -2.11386       -3.36175        1.17942
H         -1.86591       -1.68346        0.77212
H         -3.52292       -2.03127        2.61267
H         -2.17500       -1.04195        3.15328
H         -2.61075       -4.02532        3.68712
H         -2.68256       -2.70096        4.85484
H          1.06431       -3.70158        3.23528
H         -0.33997       -4.60610        2.68708
H         -0.85894       -5.13695        5.06855
H          0.57024       -4.19124        5.53924
H         -0.99947       -3.78978        6.21927
H          0.42811       -4.39398       -0.78186

--Link1--
%chk=JID_4269.chk
%mem=8GB
%nprocshared=4
# B3LYP/6-311++G(d,p) empiricaldispersion=gd3bj scf=xqc pop=npa geom=check

CID_115021690_JID_4269_Energie_neutraal

0 1

--Link1--
%chk=JID_4269.chk
%mem=8GB
%nprocshared=4
# B3LYP/6-311++G(d,p) empiricaldispersion=gd3bj scf=xqc pop=npa geom=check

CID_115021690_JID_4269_Energie_kation

1 2

--Link1--
%chk=JID_4269.chk
%mem=8GB
%nprocshared=4
# B3LYP/6-311++G(d,p) empiricaldispersion=gd3bj scf=xqc pop=npa geom=check

CID_115021690_JID_4269_Energie_anion

-1 2
