%chk=JID_10795.chk
%mem=8GB
%nprocshared=4
# opt freq B3LYP/6-31G(d) empiricaldispersion=gd3bj scf=xqc

CID_87353801_JID_10795_neutraal

0 1
C          0.96075        0.08151       -0.04261
C         -0.12171        1.12477        0.04257
O         -1.31193        0.81134        0.06537
C          0.31653        2.57204        0.13843
C         -0.03353        3.18812        1.49034
C          0.69695        2.56802        2.68690
C          2.22592        2.65556        2.64505
C          2.80347        4.07340        2.59318
C          2.42650        4.98231        3.76793
C          2.76615        4.43861        5.15993
C          4.23598        4.06906        5.38372
C          5.23677        5.21543        5.20885
C          5.03321        6.41483        6.13988
C          5.04281        6.09821        7.63920
C          6.28825        5.37050        8.15993
C          7.60879        6.09956        7.93327
C          7.68360        7.36179        8.75109
S          8.52739        7.72503       10.26917
O          7.93541        6.78825       11.20385
O          9.92481        7.62514        9.89681
H          0.51141       -0.89882       -0.22458
H          1.51787        0.04744        0.89576
H          1.63180        0.31452       -0.87314
H          1.38648        2.65282       -0.07564
H         -0.19859        3.11675       -0.66171
H          0.16880        4.26451        1.45315
H         -1.11264        3.08714        1.66281
H          0.32920        3.04531        3.60276
H          0.41429        1.51167        2.77255
H          2.62463        2.13089        3.52113
H          2.60310        2.09899        1.77986
H          3.89580        3.99843        2.53188
H          2.49227        4.56088        1.66163
H          2.91888        5.95204        3.62743
H          1.35064        5.19195        3.73179
H          2.45700        5.17922        5.90687
H          2.15398        3.55105        5.35979
H          4.33597        3.64738        6.39063
H          4.51734        3.25868        4.70121
H          6.24787        4.81555        5.35122
H          5.20706        5.57161        4.17235
H          5.80942        7.15818        5.92213
H          4.08337        6.90584        5.89622
H          4.91530        7.03759        8.19081
H          4.16244        5.49234        7.88536
H          6.15355        5.19748        9.23534
H          6.35127        4.37854        7.69840
H          8.43446        5.45359        8.25043
H          7.76449        6.35185        6.88124
H          7.09097        8.21115        8.37504

--Link1--
%chk=JID_10795.chk
%mem=8GB
%nprocshared=4
# B3LYP/6-311++G(d,p) empiricaldispersion=gd3bj scf=xqc pop=npa geom=check

CID_87353801_JID_10795_Energie_neutraal

0 1

--Link1--
%chk=JID_10795.chk
%mem=8GB
%nprocshared=4
# B3LYP/6-311++G(d,p) empiricaldispersion=gd3bj scf=xqc pop=npa geom=check

CID_87353801_JID_10795_Energie_kation

1 2

--Link1--
%chk=JID_10795.chk
%mem=8GB
%nprocshared=4
# B3LYP/6-311++G(d,p) empiricaldispersion=gd3bj scf=xqc pop=npa geom=check

CID_87353801_JID_10795_Energie_anion

-1 2
