%chk=JID_3265.chk
%mem=8GB
%nprocshared=4
# opt freq B3LYP/6-31G(d) empiricaldispersion=gd3bj scf=xqc

CID_83225594_JID_3265_neutraal

0 1
C          1.06546       -0.06922        0.03040
C          1.41247       -1.37967       -0.66193
C          1.95974       -2.42280        0.31101
C          0.90234       -2.95162        1.27732
O         -0.27158       -3.04881        0.90468
C          1.34891       -3.33747        2.72150
C          2.69190       -4.09611        2.72876
C          3.69045       -3.17278        3.42330
C          2.84308       -2.29659        4.32931
C          1.59302       -2.02889        3.50150
O          0.30500       -4.17373        3.23587
C          0.08632       -4.32801        4.63020
C          0.90792       -5.44724        5.24144
H          0.27144       -0.20565        0.77087
H          0.71695        0.66367       -0.70420
H          1.94043        0.35042        0.53709
H          0.52720       -1.76162       -1.18297
H          2.17143       -1.17990       -1.42747
H          2.33926       -3.28210       -0.25291
H          2.79643       -1.98839        0.86396
H          2.62255       -5.04416        3.26724
H          3.05397       -4.35870        1.72989
H          4.21025       -2.55413        2.68278
H          4.44823       -3.73166        3.98034
H          3.35810       -1.37193        4.60633
H          2.59158       -2.82935        5.25190
H          1.80644       -1.19220        2.82557
H          0.74951       -1.71092        4.11945
H          0.20893       -3.39922        5.19023
H         -0.96960       -4.60267        4.73425
H          1.95736       -5.16079        5.34539
H          0.53543       -5.69190        6.24092
H          0.86892       -6.34688        4.61935

--Link1--
%chk=JID_3265.chk
%mem=8GB
%nprocshared=4
# B3LYP/6-311++G(d,p) empiricaldispersion=gd3bj scf=xqc pop=npa geom=check

CID_83225594_JID_3265_Energie_neutraal

0 1

--Link1--
%chk=JID_3265.chk
%mem=8GB
%nprocshared=4
# B3LYP/6-311++G(d,p) empiricaldispersion=gd3bj scf=xqc pop=npa geom=check

CID_83225594_JID_3265_Energie_kation

1 2

--Link1--
%chk=JID_3265.chk
%mem=8GB
%nprocshared=4
# B3LYP/6-311++G(d,p) empiricaldispersion=gd3bj scf=xqc pop=npa geom=check

CID_83225594_JID_3265_Energie_anion

-1 2
