%chk=JID_6722.chk
%mem=8GB
%nprocshared=4
# opt freq B3LYP/6-31G(d) empiricaldispersion=gd3bj scf=xqc

CID_130144340_JID_6722_neutraal

0 1
C          0.94383       -0.05812       -0.05887
C          0.35182        1.32275       -0.05505
C         -0.99812        1.50616        0.28598
C         -1.58361        2.78178        0.29577
C         -0.77726        3.88238       -0.04051
C          0.57775        3.72337       -0.36765
C          1.13099        2.43759       -0.39520
O          2.44566        2.19968       -0.71102
C          3.11580        3.27858       -1.36582
C          2.88703        4.59961       -0.65484
C          1.40437        4.93038       -0.70968
C         -3.05458        3.01338        0.62229
C         -3.93377        3.06932       -0.66214
C         -4.07680        1.72530       -1.38668
C         -5.32826        3.63524       -0.36408
N         -3.55878        2.08666        1.64170
H          1.30358       -0.31340       -1.06089
H          0.20598       -0.81360        0.23108
H          1.77449       -0.11667        0.65190
H         -1.59592        0.63658        0.54667
H         -1.20801        4.88232       -0.03879
H          2.79368        3.31959       -2.41384
H          4.18512        3.04214       -1.36452
H          3.20227        4.51006        0.39249
H          3.47345        5.40115       -1.11561
H          1.19074        5.75110       -0.01527
H          1.13434        5.26315       -1.71935
H         -3.10459        4.00389        1.09568
H         -3.45711        3.76435       -1.36739
H         -4.58509        0.97927       -0.76774
H         -4.66642        1.84724       -2.30229
H         -3.10407        1.32272       -1.68286
H         -5.25637        4.60425        0.14071
H         -5.88732        3.78768       -1.29386
H         -5.91533        2.96122        0.26794
H         -4.49197        2.37348        1.92814
H         -3.66164        1.15811        1.24112

--Link1--
%chk=JID_6722.chk
%mem=8GB
%nprocshared=4
# B3LYP/6-311++G(d,p) empiricaldispersion=gd3bj scf=xqc pop=npa geom=check

CID_130144340_JID_6722_Energie_neutraal

0 1

--Link1--
%chk=JID_6722.chk
%mem=8GB
%nprocshared=4
# B3LYP/6-311++G(d,p) empiricaldispersion=gd3bj scf=xqc pop=npa geom=check

CID_130144340_JID_6722_Energie_kation

1 2

--Link1--
%chk=JID_6722.chk
%mem=8GB
%nprocshared=4
# B3LYP/6-311++G(d,p) empiricaldispersion=gd3bj scf=xqc pop=npa geom=check

CID_130144340_JID_6722_Energie_anion

-1 2
