%chk=JID_6626.chk
%mem=8GB
%nprocshared=4
# opt freq B3LYP/6-31G(d) empiricaldispersion=gd3bj scf=xqc

CID_760500_JID_6626_neutraal

0 1
C          2.49200        0.00400       -0.01400
C          1.00170       -0.09752       -0.15938
C          0.42738       -1.20687       -0.79277
C         -0.96051       -1.32658       -0.89611
C         -1.78300       -0.34757       -0.33649
C         -1.22036        0.77079        0.28512
C          0.16763        0.88688        0.38437
C         -3.25696       -0.40903       -0.42239
N         -4.07636       -1.41544       -0.33018
N         -3.59216       -2.62445        0.06774
C         -3.81053       -3.81719       -0.58899
N         -3.21439       -4.79642        0.05798
N         -2.68173       -4.27583        1.20910
C         -2.96227       -2.98784        1.24460
C         -2.69559       -2.07811        2.37929
C         -4.56556       -3.91606       -1.85531
H          2.81176       -0.48825        0.90955
H          2.99989       -0.46783       -0.86171
H          2.81154        1.05105        0.01374
H          1.05951       -1.98700       -1.21366
H         -1.37274       -2.18350       -1.42140
H         -1.84988        1.54778        0.71207
H          0.59654        1.75014        0.88957
H         -3.73388        0.56907       -0.61661
H         -2.81985       -2.61462        3.32564
H         -1.66764       -1.70693        2.34052
H         -3.37980       -1.22497        2.39447
H         -4.05659       -3.36618       -2.65294
H         -4.65520       -4.96099       -2.16830
H         -5.57585       -3.51153       -1.73978

--Link1--
%chk=JID_6626.chk
%mem=8GB
%nprocshared=4
# B3LYP/6-311++G(d,p) empiricaldispersion=gd3bj scf=xqc pop=npa geom=check

CID_760500_JID_6626_Energie_neutraal

0 1

--Link1--
%chk=JID_6626.chk
%mem=8GB
%nprocshared=4
# B3LYP/6-311++G(d,p) empiricaldispersion=gd3bj scf=xqc pop=npa geom=check

CID_760500_JID_6626_Energie_kation

1 2

--Link1--
%chk=JID_6626.chk
%mem=8GB
%nprocshared=4
# B3LYP/6-311++G(d,p) empiricaldispersion=gd3bj scf=xqc pop=npa geom=check

CID_760500_JID_6626_Energie_anion

-1 2
