%chk=JID_6897.chk
%mem=8GB
%nprocshared=4
# opt freq B3LYP/6-31G(d) empiricaldispersion=gd3bj scf=xqc

CID_144153915_JID_6897_neutraal

0 1
C          0.95935        0.01575       -0.09000
C          0.32413       -0.27481        1.23000
C         -0.23143        0.66319        2.01262
C         -0.85678        0.34806        3.31028
C         -0.03559       -0.18029        4.30797
C         -0.55275       -0.47146        5.56322
C         -1.90754       -0.24073        5.87251
C         -2.76588        0.30556        4.86616
C         -4.14152        0.58132        5.06682
C         -4.96279        1.10953        4.06787
C         -4.43571        1.38120        2.82023
C         -3.08816        1.12691        2.57997
C         -2.22872        0.59822        3.57508
C         -2.32800       -0.61133        7.29685
C         -2.74830        0.59421        8.14167
C         -3.33941       -1.75918        7.35569
H          0.91735        1.07955       -0.34438
H          0.44980       -0.54440       -0.87991
H          2.00977       -0.29028       -0.07330
H          0.32000       -1.31731        1.54227
H         -0.25406        1.70851        1.71594
H          1.01951       -0.36208        4.11570
H          0.12405       -0.88262        6.31021
H         -4.61762        0.38829        6.02091
H         -6.01248        1.30182        4.27271
H         -5.06444        1.78650        2.03269
H         -2.70933        1.34349        1.58313
H         -1.43631       -1.00572        7.80583
H         -3.69013        1.04142        7.81742
H         -2.87636        0.29726        9.18868
H         -1.98205        1.37688        8.10994
H         -2.98771       -2.61729        6.77200
H         -3.47295       -2.09390        8.39055
H         -4.32636       -1.48511        6.97760

--Link1--
%chk=JID_6897.chk
%mem=8GB
%nprocshared=4
# B3LYP/6-311++G(d,p) empiricaldispersion=gd3bj scf=xqc pop=npa geom=check

CID_144153915_JID_6897_Energie_neutraal

0 1

--Link1--
%chk=JID_6897.chk
%mem=8GB
%nprocshared=4
# B3LYP/6-311++G(d,p) empiricaldispersion=gd3bj scf=xqc pop=npa geom=check

CID_144153915_JID_6897_Energie_kation

1 2

--Link1--
%chk=JID_6897.chk
%mem=8GB
%nprocshared=4
# B3LYP/6-311++G(d,p) empiricaldispersion=gd3bj scf=xqc pop=npa geom=check

CID_144153915_JID_6897_Energie_anion

-1 2
