%chk=JID_6662.chk
%mem=8GB
%nprocshared=4
# opt freq B3LYP/6-31G(d) empiricaldispersion=gd3bj scf=xqc

CID_23373388_JID_6662_neutraal

0 1
C          1.03402       -0.06727       -0.06570
C          0.63896        1.27514        0.47868
O         -0.07262        2.03920       -0.17547
N          1.02229        1.66458        1.72310
C          1.81499        0.99093        2.78214
C          1.20520       -0.36639        3.17042
C          1.92051       -1.05278        4.33477
C          2.29697       -0.12821        5.45966
C          2.72549       -0.68178        6.67582
C          3.11648        0.13853        7.73317
C          3.08695        1.52127        7.58578
C          2.67067        2.08286        6.37974
C          2.28655        1.26624        5.30485
C          1.81173        1.91383        4.02774
C          3.28303        0.86900        2.32722
O          3.73648        1.32643        1.28063
H          1.09240       -0.00230       -1.15674
H          0.27425       -0.80524        0.20340
H          2.01153       -0.39036        0.29123
H          0.73395        2.62122        1.89578
H          0.15119       -0.21488        3.44286
H          1.20220       -1.06819        2.33214
H          1.27237       -1.85119        4.71711
H          2.83574       -1.53231        3.96571
H          2.75589       -1.76182        6.80717
H          3.44225       -0.30180        8.67209
H          3.38587        2.16312        8.41063
H          2.64697        3.16686        6.28380
H          2.42525        2.80252        3.82417
H          0.78942        2.27243        4.21380
H          3.96081        0.35284        3.02818

--Link1--
%chk=JID_6662.chk
%mem=8GB
%nprocshared=4
# B3LYP/6-311++G(d,p) empiricaldispersion=gd3bj scf=xqc pop=npa geom=check

CID_23373388_JID_6662_Energie_neutraal

0 1

--Link1--
%chk=JID_6662.chk
%mem=8GB
%nprocshared=4
# B3LYP/6-311++G(d,p) empiricaldispersion=gd3bj scf=xqc pop=npa geom=check

CID_23373388_JID_6662_Energie_kation

1 2

--Link1--
%chk=JID_6662.chk
%mem=8GB
%nprocshared=4
# B3LYP/6-311++G(d,p) empiricaldispersion=gd3bj scf=xqc pop=npa geom=check

CID_23373388_JID_6662_Energie_anion

-1 2
