%chk=JID_9720.chk
%mem=8GB
%nprocshared=4
# opt freq B3LYP/6-31G(d) empiricaldispersion=gd3bj scf=xqc

CID_43203720_JID_9720_neutraal

0 1
C          2.19400       -0.06300        0.00100
C          0.73204       -0.26283        0.01787
C         -0.07334       -1.37748       -0.05925
C         -1.40798       -0.90928       -0.01451
C         -1.33832        0.46540        0.09107
O         -0.02943        0.86219        0.12035
C         -2.38553        1.53958        0.16494
C         -2.26656        2.28446        1.49605
N         -2.23910        2.40630       -1.00452
C         -3.38376        3.22667       -1.36426
C         -3.50096        4.60682       -0.70592
C         -2.25056        5.47952       -0.87415
N         -2.49015        6.89980       -0.56759
C         -1.28685        7.70062       -0.87618
C         -1.46354        9.20076       -0.54083
N         -1.90086        9.48459        0.84021
C         -3.06918        8.63903        1.15306
C         -2.89916        7.13328        0.83023
C         -0.81986        9.28693        1.80216
H          2.48721        0.54217       -0.86227
H          2.52112        0.45001        0.91055
H          2.72087       -1.02031       -0.05857
H          0.26155       -2.40140       -0.14937
H         -2.31383       -1.49622       -0.06481
H         -3.36236        1.03999        0.13070
H         -1.36323        2.90420        1.53621
H         -3.13140        2.92797        1.67380
H         -2.21559        1.58007        2.33496
H         -1.36600        2.92463       -0.94896
H         -3.32305        3.38790       -2.44797
H         -4.31778        2.67230       -1.21081
H         -4.35832        5.11643       -1.16557
H         -3.74505        4.49494        0.35378
H         -1.92136        5.40230       -1.91825
H         -1.43839        5.08753       -0.24890
H         -0.41643        7.30758       -0.33485
H         -1.06294        7.62002       -1.94697
H         -2.21229        9.62318       -1.22435
H         -0.53200        9.73765       -0.75937
H         -3.92348        9.02185        0.57819
H         -3.35005        8.75851        2.20688
H         -3.86653        6.65538        1.02042
H         -2.17418        6.68773        1.52299
H         -0.43983        8.26085        1.82651
H          0.01852        9.95471        1.57464
H         -1.15792        9.54776        2.81139

--Link1--
%chk=JID_9720.chk
%mem=8GB
%nprocshared=4
# B3LYP/6-311++G(d,p) empiricaldispersion=gd3bj scf=xqc pop=npa geom=check

CID_43203720_JID_9720_Energie_neutraal

0 1

--Link1--
%chk=JID_9720.chk
%mem=8GB
%nprocshared=4
# B3LYP/6-311++G(d,p) empiricaldispersion=gd3bj scf=xqc pop=npa geom=check

CID_43203720_JID_9720_Energie_kation

1 2

--Link1--
%chk=JID_9720.chk
%mem=8GB
%nprocshared=4
# B3LYP/6-311++G(d,p) empiricaldispersion=gd3bj scf=xqc pop=npa geom=check

CID_43203720_JID_9720_Energie_anion

-1 2
