%chk=JID_3964.chk
%mem=8GB
%nprocshared=4
# opt freq B3LYP/6-31G(d) empiricaldispersion=gd3bj scf=xqc

CID_79977237_JID_3964_neutraal

0 1
C         -0.02900        0.88300        0.00000
C         -0.83723       -0.37247       -0.12334
C          0.60811       -0.45161        0.31149
C          1.64556       -1.03301       -0.61749
C          1.52233       -2.33320       -1.12772
C          2.49453       -2.88824       -1.97093
C          3.62747       -2.15433       -2.33685
C          3.76789       -0.86086       -1.81972
C          2.79392       -0.31338       -0.97506
C          4.69922       -2.68898       -3.19559
C          4.59175       -3.76541       -3.98757
C          5.74493       -4.19850       -4.80132
O          5.68014       -5.18712       -5.52113
H         -0.24248        1.54646        0.83022
H          0.24218        1.39588       -0.91597
H         -1.60007       -0.56254        0.62298
H         -1.10538       -0.70035       -1.12149
H          0.77350       -0.66129        1.36709
H          0.65394       -2.93217       -0.85968
H          2.34389       -3.90636       -2.31895
H          4.63769       -0.25534       -2.06508
H          2.93689        0.69336       -0.58745
H          5.63517       -2.13415       -3.16309
H          3.69698       -4.36541       -4.09053
H          6.65970       -3.58792       -4.72377

--Link1--
%chk=JID_3964.chk
%mem=8GB
%nprocshared=4
# B3LYP/6-311++G(d,p) empiricaldispersion=gd3bj scf=xqc pop=npa geom=check

CID_79977237_JID_3964_Energie_neutraal

0 1

--Link1--
%chk=JID_3964.chk
%mem=8GB
%nprocshared=4
# B3LYP/6-311++G(d,p) empiricaldispersion=gd3bj scf=xqc pop=npa geom=check

CID_79977237_JID_3964_Energie_kation

1 2

--Link1--
%chk=JID_3964.chk
%mem=8GB
%nprocshared=4
# B3LYP/6-311++G(d,p) empiricaldispersion=gd3bj scf=xqc pop=npa geom=check

CID_79977237_JID_3964_Energie_anion

-1 2
