%chk=JID_4571.chk
%mem=8GB
%nprocshared=4
# opt freq B3LYP/6-31G(d) empiricaldispersion=gd3bj scf=xqc

CID_142610567_JID_4571_neutraal

0 1
C          1.04979       -0.06215        0.06048
C          0.09564       -0.72497        1.05523
C          0.90667       -1.18460        2.24581
N          1.40846       -2.37007        2.39783
C          1.13905       -3.29144        1.41421
C          0.17212       -3.16257        0.47360
C         -0.66767       -1.90908        0.43534
C         -1.99477       -2.15126        1.16414
N         -0.05804       -4.14848       -0.47713
C          0.70432       -5.29164       -0.58580
C          1.69382       -5.51182        0.30956
C          1.94685       -4.53147        1.37803
C          2.91409       -4.78605        2.27819
N          0.42819       -6.18135       -1.59349
H          1.58708        0.76757        0.53329
H          0.49909        0.33837       -0.79690
H          1.80155       -0.76501       -0.31490
H         -0.60839        0.03801        1.40883
H          1.12893       -0.42491        3.01438
H         -0.90532       -1.66171       -0.60792
H         -2.63127       -1.26137        1.11079
H         -2.54842       -2.98012        0.70890
H         -1.84080       -2.39155        2.22211
H         -0.62969       -3.91639       -1.27770
H          2.31709       -6.39608        0.25618
H          3.50886       -5.69163        2.24684
H          3.13545       -4.08658        3.07871
H          0.83147       -7.09872       -1.42520
H         -0.57169       -6.24588       -1.75596

--Link1--
%chk=JID_4571.chk
%mem=8GB
%nprocshared=4
# B3LYP/6-311++G(d,p) empiricaldispersion=gd3bj scf=xqc pop=npa geom=check

CID_142610567_JID_4571_Energie_neutraal

0 1

--Link1--
%chk=JID_4571.chk
%mem=8GB
%nprocshared=4
# B3LYP/6-311++G(d,p) empiricaldispersion=gd3bj scf=xqc pop=npa geom=check

CID_142610567_JID_4571_Energie_kation

1 2

--Link1--
%chk=JID_4571.chk
%mem=8GB
%nprocshared=4
# B3LYP/6-311++G(d,p) empiricaldispersion=gd3bj scf=xqc pop=npa geom=check

CID_142610567_JID_4571_Energie_anion

-1 2
