%chk=JID_3386.chk
%mem=8GB
%nprocshared=4
# opt freq B3LYP/6-31G(d) empiricaldispersion=gd3bj scf=xqc

CID_80089952_JID_3386_neutraal

0 1
C          1.07353        0.02805       -0.06170
C          0.86236       -1.10437       -1.06020
C          0.98925       -2.52704       -0.45647
C          0.06531       -2.72129        0.77831
C         -1.42347       -2.53379        0.51719
C          0.78081       -3.64342       -1.54548
C          1.62800       -3.45318       -2.83421
C          3.14603       -3.38371       -2.64653
O          3.69262       -4.69215       -2.50220
C          5.05021       -4.66191       -2.09180
N          1.05960       -4.97848       -0.99736
C         -0.04509       -5.92688       -1.07578
C         -0.34952       -6.37040       -2.49954
H          0.26169        0.08259        0.66880
H          1.10390        0.98820       -0.58726
H          2.01981       -0.09362        0.47462
H         -0.11287       -0.98301       -1.54563
H          1.61767       -0.97089       -1.84185
H          2.01569       -2.62005       -0.07500
H          0.21676       -3.71644        1.21084
H          0.36934       -2.02508        1.56917
H         -1.79983       -3.24579       -0.22146
H         -1.98378       -2.69483        1.44432
H         -1.65004       -1.52231        0.16942
H         -0.26743       -3.58021       -1.86435
H          1.39755       -4.26710       -3.53394
H          1.29576       -2.53567       -3.33399
H          3.59022       -2.93694       -3.54398
H          3.41777       -2.75590       -1.79275
H          5.65367       -4.07219       -2.78822
H          5.12932       -4.25008       -1.08106
H          5.42919       -5.68732       -2.07916
H          1.41543       -4.92657       -0.04640
H          0.23843       -6.81697       -0.50211
H         -0.94476       -5.52419       -0.59841
H          0.54569       -6.77034       -2.98787
H         -1.10642       -7.16149       -2.49112
H         -0.73666       -5.54805       -3.10866

--Link1--
%chk=JID_3386.chk
%mem=8GB
%nprocshared=4
# B3LYP/6-311++G(d,p) empiricaldispersion=gd3bj scf=xqc pop=npa geom=check

CID_80089952_JID_3386_Energie_neutraal

0 1

--Link1--
%chk=JID_3386.chk
%mem=8GB
%nprocshared=4
# B3LYP/6-311++G(d,p) empiricaldispersion=gd3bj scf=xqc pop=npa geom=check

CID_80089952_JID_3386_Energie_kation

1 2

--Link1--
%chk=JID_3386.chk
%mem=8GB
%nprocshared=4
# B3LYP/6-311++G(d,p) empiricaldispersion=gd3bj scf=xqc pop=npa geom=check

CID_80089952_JID_3386_Energie_anion

-1 2
