%chk=JID_9318.chk
%mem=8GB
%nprocshared=4
# opt freq B3LYP/6-31G(d) empiricaldispersion=gd3bj scf=xqc

CID_55170425_JID_9318_neutraal

0 1
C          2.20000        0.01800       -0.02000
N          1.18808       -0.19462       -1.02568
C          0.96469       -1.36605       -1.69336
C         -0.08033       -1.09975       -2.54399
N         -0.49558        0.19810       -2.41003
C          0.28121        0.73357       -1.48241
C          0.21215        2.14006       -0.97697
N         -1.11246        2.65335       -1.23341
C         -1.69889        3.80205       -0.81112
O         -2.82031        4.07022       -1.26035
C         -1.08528        4.71357        0.27295
C         -1.67768        4.40302        1.66473
C         -1.20914        3.12103        2.31742
C         -1.82394        1.89981        2.00798
C         -1.37751        0.71292        2.59078
C         -0.32034        0.73491        3.49773
C          0.29084        1.94410        3.82350
C         -0.15148        3.13194        3.23823
N          0.39522        4.79883        0.24051
H          2.85815       -0.85351        0.02551
H          2.78238        0.90265       -0.28954
H          1.70467        0.15960        0.94336
H          1.54298       -2.26231       -1.51881
H         -0.55570       -1.77293       -3.24561
H          0.41490        2.16985        0.09361
H          0.93590        2.76399       -1.50975
H         -1.62563        2.16474       -1.96116
H         -1.43120        5.71935       -0.00488
H         -1.45144        5.24013        2.33926
H         -2.77392        4.37500        1.60028
H         -2.65345        1.86168        1.30280
H         -1.86170       -0.22738        2.33795
H          0.01774       -0.18924        3.95919
H          1.10554        1.96333        4.54299
H          0.32996        4.06780        3.51367
H          0.66711        5.70047        0.63332
H          0.77384        4.10984        0.88839

--Link1--
%chk=JID_9318.chk
%mem=8GB
%nprocshared=4
# B3LYP/6-311++G(d,p) empiricaldispersion=gd3bj scf=xqc pop=npa geom=check

CID_55170425_JID_9318_Energie_neutraal

0 1

--Link1--
%chk=JID_9318.chk
%mem=8GB
%nprocshared=4
# B3LYP/6-311++G(d,p) empiricaldispersion=gd3bj scf=xqc pop=npa geom=check

CID_55170425_JID_9318_Energie_kation

1 2

--Link1--
%chk=JID_9318.chk
%mem=8GB
%nprocshared=4
# B3LYP/6-311++G(d,p) empiricaldispersion=gd3bj scf=xqc pop=npa geom=check

CID_55170425_JID_9318_Energie_anion

-1 2
