%chk=JID_7740.chk
%mem=8GB
%nprocshared=4
# opt freq B3LYP/6-31G(d) empiricaldispersion=gd3bj scf=xqc

CID_148310851_JID_7740_neutraal

0 1
C          1.07568        0.04607       -0.04637
C          0.08223       -0.37308       -0.84532
C         -1.37993       -0.30905       -0.49469
C         -2.05211        0.75768       -1.35970
N         -3.24589        0.67576       -1.86190
N         -2.07360       -1.58195       -0.52304
C         -3.16178       -1.76299        0.40229
N         -3.95884       -2.76584       -0.19848
C         -3.41876       -3.29606       -1.34170
O         -3.94452       -4.18152       -1.99433
C         -2.07247       -2.59212       -1.59831
C         -2.06146       -2.06820       -3.04614
C         -1.80545       -3.17125       -4.07998
N         -0.60028       -3.95449       -3.77218
C         -0.77675       -4.61874       -2.47274
C         -0.94776       -3.61411       -1.32993
S          0.90238       -3.37194       -4.20402
H          0.88983        0.45862        0.94038
H          2.11082       -0.02763       -0.36867
H          0.35455       -0.77065       -1.82001
H         -1.44341        0.09260        0.52720
H         -1.49747        1.70149       -1.50308
H         -3.64759       -0.24066       -1.63327
H         -3.78405       -0.87392        0.54095
H         -2.81612       -2.12337        1.37561
H         -4.83414       -3.11235        0.16924
H         -1.29310       -1.30123       -3.17989
H         -3.02000       -1.59733       -3.29465
H         -1.72335       -2.71975       -5.07751
H         -2.66945       -3.84278       -4.14837
H         -1.64067       -5.29301       -2.52072
H          0.07888       -5.27224       -2.25801
H          0.00892       -3.10163       -1.17800
H         -1.14413       -4.17305       -0.40500
H          0.77029       -3.43810       -5.53958

--Link1--
%chk=JID_7740.chk
%mem=8GB
%nprocshared=4
# B3LYP/6-311++G(d,p) empiricaldispersion=gd3bj scf=xqc pop=npa geom=check

CID_148310851_JID_7740_Energie_neutraal

0 1

--Link1--
%chk=JID_7740.chk
%mem=8GB
%nprocshared=4
# B3LYP/6-311++G(d,p) empiricaldispersion=gd3bj scf=xqc pop=npa geom=check

CID_148310851_JID_7740_Energie_kation

1 2

--Link1--
%chk=JID_7740.chk
%mem=8GB
%nprocshared=4
# B3LYP/6-311++G(d,p) empiricaldispersion=gd3bj scf=xqc pop=npa geom=check

CID_148310851_JID_7740_Energie_anion

-1 2
