%chk=JID_8537.chk
%mem=8GB
%nprocshared=4
# opt freq B3LYP/6-31G(d) empiricaldispersion=gd3bj scf=xqc

CID_137756705_JID_8537_neutraal

0 1
C         -2.75500        0.18800        0.01700
C         -1.71600        1.10339        0.25768
C         -0.38739        0.68744        0.33442
C         -0.11033       -0.66839        0.16085
C         -1.12967       -1.59554       -0.07782
C         -2.46030       -1.16488       -0.14311
C         -3.51916       -2.13585       -0.37567
C         -4.76719       -1.93591        0.05269
C         -5.81709       -3.03489        0.07136
N         -6.68807       -3.94658        0.08686
C         -5.30128       -0.80074        0.86566
O         -4.92999       -0.55921        2.00541
N         -6.26530       -0.05887        0.24576
C          1.30046       -1.08677        0.23002
O          1.64381       -2.25252        0.07692
N          2.20325       -0.08224        0.46750
C          1.83458        1.22321        0.61883
N          0.61765        1.64344        0.56219
H         -3.73372        0.62877       -0.11615
H         -1.94755        2.16055        0.37060
H         -0.87513       -2.64660       -0.19952
H         -3.24150       -3.07873       -0.83965
H         -6.63631       -0.25985       -0.67337
H         -6.69323        0.68842        0.77944
H          3.17425       -0.35467        0.51687
H          2.67672        1.91042        0.79595

--Link1--
%chk=JID_8537.chk
%mem=8GB
%nprocshared=4
# B3LYP/6-311++G(d,p) empiricaldispersion=gd3bj scf=xqc pop=npa geom=check

CID_137756705_JID_8537_Energie_neutraal

0 1

--Link1--
%chk=JID_8537.chk
%mem=8GB
%nprocshared=4
# B3LYP/6-311++G(d,p) empiricaldispersion=gd3bj scf=xqc pop=npa geom=check

CID_137756705_JID_8537_Energie_kation

1 2

--Link1--
%chk=JID_8537.chk
%mem=8GB
%nprocshared=4
# B3LYP/6-311++G(d,p) empiricaldispersion=gd3bj scf=xqc pop=npa geom=check

CID_137756705_JID_8537_Energie_anion

-1 2
