%chk=JID_9601.chk
%mem=8GB
%nprocshared=4
# opt freq B3LYP/6-31G(d) empiricaldispersion=gd3bj scf=xqc

CID_28315557_JID_9601_neutraal

0 1
C          0.90733       -0.02639       -0.02675
O          1.66884       -0.54827        1.06472
C          1.80031       -1.91366        0.99648
C          3.06292       -2.50006        0.82469
C          3.19489       -3.89797        0.74023
C          2.04172       -4.67988        0.89104
C          0.79232       -4.11049        1.10737
C          0.66072       -2.71477        1.16736
N         -0.16811       -5.07831        1.22972
C          0.44884       -6.23552        1.08471
N          1.80185       -6.03902        0.87975
C          2.79294       -7.07053        0.62346
C          3.07881       -7.91795        1.85251
N          3.31596       -8.62096        2.87210
C         -0.23318       -7.57288        1.14776
C         -0.74014       -7.88817        2.56315
N         -1.92850       -7.10870        2.91134
O          4.25336       -1.83605        0.66085
C          4.40055       -0.62724        1.39876
H         -0.15956       -0.22946        0.10878
H          1.25644       -0.42651       -0.98533
H          1.04554        1.05879       -0.04114
H          4.17445       -4.33678        0.58179
H         -0.31490       -2.28023        1.35038
H          2.41683       -7.69632       -0.19268
H          3.71945       -6.60167        0.28030
H         -1.06846       -7.57899        0.43622
H          0.43967       -8.37468        0.82890
H         -1.00267       -8.94966        2.62389
H          0.04850       -7.69940        3.30066
H         -2.06627       -7.13091        3.92041
H         -1.74837       -6.12610        2.67301
H          3.99601        0.21752        0.83384
H          3.95791       -0.69147        2.39883
H          5.47283       -0.44820        1.52641

--Link1--
%chk=JID_9601.chk
%mem=8GB
%nprocshared=4
# B3LYP/6-311++G(d,p) empiricaldispersion=gd3bj scf=xqc pop=npa geom=check

CID_28315557_JID_9601_Energie_neutraal

0 1

--Link1--
%chk=JID_9601.chk
%mem=8GB
%nprocshared=4
# B3LYP/6-311++G(d,p) empiricaldispersion=gd3bj scf=xqc pop=npa geom=check

CID_28315557_JID_9601_Energie_kation

1 2

--Link1--
%chk=JID_9601.chk
%mem=8GB
%nprocshared=4
# B3LYP/6-311++G(d,p) empiricaldispersion=gd3bj scf=xqc pop=npa geom=check

CID_28315557_JID_9601_Energie_anion

-1 2
