%chk=JID_7550.chk
%mem=8GB
%nprocshared=4
# opt freq B3LYP/6-31G(d) empiricaldispersion=gd3bj scf=xqc

CID_64733690_JID_7550_neutraal

0 1
C          0.99675       -0.09380        0.03450
C          0.35858       -1.29714       -0.65945
C          1.23421       -1.89972       -1.76570
C          2.31142       -2.89467       -1.31585
C          1.77359       -3.91555       -0.30338
C          0.90914       -3.35551        0.83357
C         -0.14507       -2.36260        0.32462
N          1.72109       -2.80025        1.90484
C          1.51129       -2.74955        3.25352
O          2.21598       -1.94964        3.87919
C          0.49502       -3.68377        3.97032
C          0.62337       -3.53948        5.50208
C          0.04973       -4.82600        6.08819
C          0.20756       -5.88317        4.99961
C          0.82939       -5.17261        3.79781
N         -0.89519       -3.36900        3.57447
C          3.60795       -2.22026       -0.86921
H          0.27602        0.38071        0.70974
H          1.29999        0.65869       -0.70136
H          1.87314       -0.35086        0.62721
H         -0.53267       -0.89070       -1.15950
H          0.56082       -2.44421       -2.44337
H          1.67994       -1.10413       -2.37551
H          2.59353       -3.46932       -2.21035
H          2.59772       -4.51402        0.10523
H          1.14426       -4.61968       -0.86644
H          0.37160       -4.20643        1.25379
H         -0.65843       -1.87651        1.16242
H         -0.91320       -2.94819       -0.20000
H          2.40974       -2.10685        1.64814
H          1.67701       -3.45789        5.80028
H          0.11526       -2.65098        5.89429
H         -1.00970       -4.69879        6.33847
H          0.56923       -5.10994        7.00913
H         -0.77286       -6.29694        4.73681
H          0.83456       -6.71698        5.33183
H          0.45920       -5.60663        2.86447
H          1.91718       -5.32084        3.80420
H         -1.09441       -3.75486        2.65657
H         -1.54955       -3.81920        4.21192
H          4.36868       -2.97217       -0.63248
H          4.00790       -1.59389       -1.67425
H          3.48908       -1.58610        0.00726

--Link1--
%chk=JID_7550.chk
%mem=8GB
%nprocshared=4
# B3LYP/6-311++G(d,p) empiricaldispersion=gd3bj scf=xqc pop=npa geom=check

CID_64733690_JID_7550_Energie_neutraal

0 1

--Link1--
%chk=JID_7550.chk
%mem=8GB
%nprocshared=4
# B3LYP/6-311++G(d,p) empiricaldispersion=gd3bj scf=xqc pop=npa geom=check

CID_64733690_JID_7550_Energie_kation

1 2

--Link1--
%chk=JID_7550.chk
%mem=8GB
%nprocshared=4
# B3LYP/6-311++G(d,p) empiricaldispersion=gd3bj scf=xqc pop=npa geom=check

CID_64733690_JID_7550_Energie_anion

-1 2
