%chk=JID_1944.chk
%mem=8GB
%nprocshared=4
# opt freq B3LYP/6-31G(d) empiricaldispersion=gd3bj scf=xqc

CID_90878365_JID_1944_neutraal

0 1
C          0.92821        0.06857        0.01203
C          0.31742        0.09076        1.39128
N          0.45834       -0.95217        2.13281
C         -0.14400       -1.01034        3.47228
C         -0.32205        0.38007        4.08509
C         -1.10902        1.24967        3.12163
C         -0.34787        1.38039        1.81884
C          0.75218       -1.89937        4.33716
C          0.11349       -2.20285        5.67454
O         -0.97182       -2.77783        5.76016
C          0.84038       -1.72686        6.90415
H          0.17405        0.35667       -0.72516
H          1.30073       -0.93036       -0.23094
H          1.75778        0.77979       -0.02487
H         -1.12830       -1.48670        3.37441
H          0.65235        0.84064        4.29188
H         -0.86034        0.31506        5.03716
H         -2.09164        0.79922        2.93531
H         -1.28611        2.24014        3.55477
H         -1.01534        1.72564        1.02246
H          0.44700        2.12837        1.92737
H          0.94612       -2.85895        3.84252
H          1.72973       -1.42770        4.49245
H          1.88106       -2.05845        6.87152
H          0.79330       -0.63646        6.95561
H          0.36947       -2.14932        7.79611

--Link1--
%chk=JID_1944.chk
%mem=8GB
%nprocshared=4
# B3LYP/6-311++G(d,p) empiricaldispersion=gd3bj scf=xqc pop=npa geom=check

CID_90878365_JID_1944_Energie_neutraal

0 1

--Link1--
%chk=JID_1944.chk
%mem=8GB
%nprocshared=4
# B3LYP/6-311++G(d,p) empiricaldispersion=gd3bj scf=xqc pop=npa geom=check

CID_90878365_JID_1944_Energie_kation

1 2

--Link1--
%chk=JID_1944.chk
%mem=8GB
%nprocshared=4
# B3LYP/6-311++G(d,p) empiricaldispersion=gd3bj scf=xqc pop=npa geom=check

CID_90878365_JID_1944_Energie_anion

-1 2
