%chk=JID_8246.chk
%mem=8GB
%nprocshared=4
# opt freq B3LYP/6-31G(d) empiricaldispersion=gd3bj scf=xqc

CID_102775811_JID_8246_neutraal

0 1
C          1.03868       -0.00153       -0.09220
C          0.93686       -1.05958        0.99373
C          0.92923       -2.48630        0.43645
C          1.18326       -3.33480        1.67317
N          1.95335       -2.48417        2.56059
C          2.06864       -1.11012        2.03925
C          3.45159       -0.80461        1.44168
O          3.83386        0.29528        1.06892
O          4.25455       -1.87594        1.28527
C          2.49742       -2.99810        3.72296
O          2.38983       -4.18295        4.02781
C          3.23246       -2.07724        4.56869
C          2.72375       -1.07354        5.37707
N          3.80754       -0.51626        5.99782
N          4.97372       -1.08899        5.66938
C          4.62801       -2.07303        4.82973
C          5.66178       -2.99539        4.29810
C          1.34266       -0.62477        5.66723
H          1.12390        0.99772        0.34644
H          0.14166       -0.01656       -0.72067
H          1.89764       -0.16695       -0.75017
H         -0.00952       -0.90224        1.53139
H         -0.01173       -2.74648       -0.05734
H          1.74222       -2.62395       -0.28693
H          1.72725       -4.25696        1.44676
H          0.24726       -3.59189        2.18143
H          1.89614       -0.38935        2.84213
H          5.07808       -1.50459        0.90544
H          3.82292        0.24387        6.67010
H          5.85756       -3.79639        5.01798
H          5.34367       -3.45381        3.35705
H          6.60055       -2.46445        4.10898
H          0.63523       -0.99447        4.91899
H          1.02180       -0.99568        6.64599
H          1.28166        0.46827        5.67585

--Link1--
%chk=JID_8246.chk
%mem=8GB
%nprocshared=4
# B3LYP/6-311++G(d,p) empiricaldispersion=gd3bj scf=xqc pop=npa geom=check

CID_102775811_JID_8246_Energie_neutraal

0 1

--Link1--
%chk=JID_8246.chk
%mem=8GB
%nprocshared=4
# B3LYP/6-311++G(d,p) empiricaldispersion=gd3bj scf=xqc pop=npa geom=check

CID_102775811_JID_8246_Energie_kation

1 2

--Link1--
%chk=JID_8246.chk
%mem=8GB
%nprocshared=4
# B3LYP/6-311++G(d,p) empiricaldispersion=gd3bj scf=xqc pop=npa geom=check

CID_102775811_JID_8246_Energie_anion

-1 2
