%chk=JID_9940.chk
%mem=8GB
%nprocshared=4
# opt freq B3LYP/6-31G(d) empiricaldispersion=gd3bj scf=xqc

CID_61549459_JID_9940_neutraal

0 1
C          0.93939       -0.01254       -0.07855
C          0.59723       -1.09524        0.95092
C          1.59518       -1.07036        2.10972
N         -0.81612       -1.08499        1.33637
C         -1.24049       -0.41641        2.56661
C         -1.25538        1.10514        2.51718
S         -2.88720        1.76943        2.17640
O         -3.68217        0.80226        1.45379
O         -3.37357        2.36685        3.40289
N         -2.53864        3.06903        1.15439
C         -2.04377        2.84119       -0.16288
C         -0.84749        3.44842       -0.54415
C         -0.34033        3.22108       -1.83301
C         -1.02507        2.40555       -2.74272
C         -2.23117        1.82316       -2.35985
C         -2.73985        2.04785       -1.07831
N          0.93326        3.83399       -2.22627
O          1.54586        4.48278       -1.36639
O          1.32392        3.65937       -3.38845
H          0.93246        0.98962        0.35571
H          0.23790       -0.03321       -0.91904
H          1.94169       -0.18216       -0.48795
H          0.74426       -2.05395        0.43695
H          1.56848       -0.11861        2.65084
H          1.39469       -1.88103        2.81869
H          2.61657       -1.20890        1.73854
H         -1.43009       -0.86128        0.55211
H         -2.23289       -0.80234        2.82762
H         -0.60451       -0.74305        3.39638
H         -0.96137        1.51280        3.49124
H         -0.55147        1.50223        1.78903
H         -2.22626        3.89952        1.65787
H         -0.30999        4.08069        0.15804
H         -0.63957        2.21947       -3.74346
H         -2.78350        1.19627       -3.05727
H         -3.69834        1.60424       -0.81525

--Link1--
%chk=JID_9940.chk
%mem=8GB
%nprocshared=4
# B3LYP/6-311++G(d,p) empiricaldispersion=gd3bj scf=xqc pop=npa geom=check

CID_61549459_JID_9940_Energie_neutraal

0 1

--Link1--
%chk=JID_9940.chk
%mem=8GB
%nprocshared=4
# B3LYP/6-311++G(d,p) empiricaldispersion=gd3bj scf=xqc pop=npa geom=check

CID_61549459_JID_9940_Energie_kation

1 2

--Link1--
%chk=JID_9940.chk
%mem=8GB
%nprocshared=4
# B3LYP/6-311++G(d,p) empiricaldispersion=gd3bj scf=xqc pop=npa geom=check

CID_61549459_JID_9940_Energie_anion

-1 2
