%chk=JID_4563.chk
%mem=8GB
%nprocshared=4
# opt freq B3LYP/6-31G(d) empiricaldispersion=gd3bj scf=xqc

CID_66229905_JID_4563_neutraal

0 1
C          0.95175        0.08694        0.01063
C          0.79774        0.16644       -1.49916
C          1.16023       -1.11386       -2.14824
N          0.63024       -2.30633       -1.99825
C          1.37587       -3.06571       -2.86826
N          2.33593       -2.39140       -3.51730
O          2.18802       -1.08627       -3.04470
C          1.15453       -4.52385       -3.03465
S          0.17343       -4.97381       -4.50237
C         -1.37754       -4.02242       -4.25208
C         -2.40787       -4.68837       -3.30750
C         -2.29198       -4.26549       -1.82911
C         -2.64629       -2.81335       -1.52371
N         -3.77595       -4.42827       -3.79147
H          0.30350       -0.68700        0.43605
H          0.68388        1.04342        0.47052
H          1.98420       -0.14880        0.29077
H         -0.24068        0.41186       -1.74813
H          1.42272        0.97935       -1.88564
H          2.12510       -5.02336       -3.13455
H          0.69032       -4.95205       -2.14317
H         -1.16432       -2.98449       -3.98653
H         -1.80817       -3.98034       -5.26057
H         -2.27561       -5.77643       -3.35388
H         -2.95107       -4.90478       -1.22659
H         -1.28132       -4.46257       -1.46472
H         -3.71173       -2.62086       -1.68261
H         -2.42874       -2.59176       -0.47353
H         -2.07769       -2.11087       -2.13706
H         -4.45151       -4.83267       -3.14380
H         -3.95964       -3.42618       -3.81030

--Link1--
%chk=JID_4563.chk
%mem=8GB
%nprocshared=4
# B3LYP/6-311++G(d,p) empiricaldispersion=gd3bj scf=xqc pop=npa geom=check

CID_66229905_JID_4563_Energie_neutraal

0 1

--Link1--
%chk=JID_4563.chk
%mem=8GB
%nprocshared=4
# B3LYP/6-311++G(d,p) empiricaldispersion=gd3bj scf=xqc pop=npa geom=check

CID_66229905_JID_4563_Energie_kation

1 2

--Link1--
%chk=JID_4563.chk
%mem=8GB
%nprocshared=4
# B3LYP/6-311++G(d,p) empiricaldispersion=gd3bj scf=xqc pop=npa geom=check

CID_66229905_JID_4563_Energie_anion

-1 2
