%chk=JID_2767.chk
%mem=8GB
%nprocshared=4
# opt freq B3LYP/6-31G(d) empiricaldispersion=gd3bj scf=xqc

CID_147862656_JID_2767_neutraal

0 1
C          1.02339        0.09598       -0.01550
C          0.35206        1.45087        0.16463
C          0.66935        2.45196       -0.96053
C          0.28808        1.95859       -2.38432
N         -1.16938        1.85316       -2.57894
C         -1.49952        1.29068       -3.89818
C         -1.41364       -0.25040       -3.98805
N         -2.59340       -0.93748       -3.46008
C         -3.52711       -1.51922       -4.40321
C         -2.80560       -1.03161       -2.10199
O         -2.08207       -0.55590       -1.23666
N         -0.03636        3.71328       -0.65820
H          0.62643       -0.44450       -0.87868
H          0.85143       -0.52651        0.86864
H          2.10454        0.20844       -0.14401
H         -0.72965        1.30255        0.26443
H          0.69137        1.87297        1.12001
H          1.74675        2.65738       -0.94807
H          0.68065        2.68424       -3.10879
H          0.78892        1.00773       -2.59044
H         -1.54036        1.21225       -1.86177
H         -2.52003        1.60431       -4.14773
H         -0.84799        1.73629       -4.65976
H         -1.29294       -0.54097       -5.03832
H         -0.53454       -0.62455       -3.45179
H         -3.01465       -2.31119       -4.95737
H         -4.39272       -1.94771       -3.89074
H         -3.86515       -0.74378       -5.09592
H         -3.72264       -1.58568       -1.84268
H          0.19089        4.38954       -1.38685
H         -1.03200        3.52320       -0.81706

--Link1--
%chk=JID_2767.chk
%mem=8GB
%nprocshared=4
# B3LYP/6-311++G(d,p) empiricaldispersion=gd3bj scf=xqc pop=npa geom=check

CID_147862656_JID_2767_Energie_neutraal

0 1

--Link1--
%chk=JID_2767.chk
%mem=8GB
%nprocshared=4
# B3LYP/6-311++G(d,p) empiricaldispersion=gd3bj scf=xqc pop=npa geom=check

CID_147862656_JID_2767_Energie_kation

1 2

--Link1--
%chk=JID_2767.chk
%mem=8GB
%nprocshared=4
# B3LYP/6-311++G(d,p) empiricaldispersion=gd3bj scf=xqc pop=npa geom=check

CID_147862656_JID_2767_Energie_anion

-1 2
