%chk=JID_4422.chk
%mem=8GB
%nprocshared=4
# opt freq B3LYP/6-31G(d) empiricaldispersion=gd3bj scf=xqc

CID_64090052_JID_4422_neutraal

0 1
C          1.03971        0.05469       -0.07370
C          1.09426        1.56186       -0.31785
C          0.82327        1.94516       -1.78532
C         -0.54606        1.57490       -2.36125
C         -1.62070        2.56784       -1.96955
O         -1.61586        3.72315       -2.39515
N         -2.61677        2.18733       -1.11739
C         -3.02784        0.83848       -0.77722
C         -3.99972        0.83727        0.39739
C         -4.56733       -0.54884        0.72013
C         -3.51950       -1.63088        0.97127
O         -2.56706       -1.16180        1.92070
C         -1.59386       -2.15316        2.22348
N          0.21473        2.26208        0.61092
H          0.03165       -0.35113       -0.19198
H          1.37233       -0.18539        0.94267
H          1.70025       -0.47368       -0.76940
H          2.11737        1.88803       -0.09221
H          0.99132        3.02388       -1.90442
H          1.58696        1.45362       -2.40287
H         -0.48862        1.62061       -3.45698
H         -0.81568        0.54375       -2.13272
H         -3.29628        2.93123       -0.99791
H         -3.48899        0.40237       -1.66978
H         -2.14133        0.25282       -0.53131
H         -3.49984        1.24981        1.28297
H         -4.83799        1.51250        0.18319
H         -5.18781       -0.44733        1.61938
H         -5.23148       -0.87529       -0.08871
H         -4.01337       -2.53128        1.35493
H         -3.00905       -1.89159        0.03716
H         -2.06911       -3.03281        2.66806
H         -1.04325       -2.43708        1.32147
H         -0.88851       -1.73370        2.94571
H          0.41755        1.98070        1.56925
H         -0.76280        2.01959        0.45064

--Link1--
%chk=JID_4422.chk
%mem=8GB
%nprocshared=4
# B3LYP/6-311++G(d,p) empiricaldispersion=gd3bj scf=xqc pop=npa geom=check

CID_64090052_JID_4422_Energie_neutraal

0 1

--Link1--
%chk=JID_4422.chk
%mem=8GB
%nprocshared=4
# B3LYP/6-311++G(d,p) empiricaldispersion=gd3bj scf=xqc pop=npa geom=check

CID_64090052_JID_4422_Energie_kation

1 2

--Link1--
%chk=JID_4422.chk
%mem=8GB
%nprocshared=4
# B3LYP/6-311++G(d,p) empiricaldispersion=gd3bj scf=xqc pop=npa geom=check

CID_64090052_JID_4422_Energie_anion

-1 2
