%chk=JID_4812.chk
%mem=8GB
%nprocshared=4
# opt freq B3LYP/6-31G(d) empiricaldispersion=gd3bj scf=xqc

CID_58890794_JID_4812_neutraal

0 1
C          1.01950       -0.02140        0.09572
C          0.49602        0.63723        1.39049
C          0.94626        2.11529        1.36774
C         -1.04756        0.63004        1.37989
C          1.01389       -0.15314        2.60375
C          1.84292        0.41745        3.58447
C          2.32776       -0.34103        4.65696
C          1.99193       -1.68697        4.77170
C          1.15928       -2.27224        3.82313
C          0.67631       -1.51317        2.75346
C          2.52736       -2.47644        5.83421
C          3.05050       -3.22905        6.76154
C          3.66036       -4.10643        7.84259
N          3.28717       -3.59310        9.14957
H          0.69977        0.54075       -0.78959
H          0.65219       -1.04619       -0.02709
H          2.11529       -0.06089        0.08731
H          0.55171        2.63484        0.48622
H          0.58848        2.65928        2.24969
H          2.03826        2.20454        1.33101
H         -1.45765       -0.38098        1.28194
H         -1.44997        1.06021        2.30471
H         -1.43965        1.21666        0.54080
H          2.14272        1.46058        3.53742
H          2.97743        0.12705        5.39242
H          0.88923       -3.32250        3.90054
H          0.03665       -2.00853        2.02621
H          3.29752       -5.13215        7.72524
H          4.74963       -4.10974        7.73315
H          3.77884       -4.11969        9.86780
H          3.60589       -2.62890        9.22824

--Link1--
%chk=JID_4812.chk
%mem=8GB
%nprocshared=4
# B3LYP/6-311++G(d,p) empiricaldispersion=gd3bj scf=xqc pop=npa geom=check

CID_58890794_JID_4812_Energie_neutraal

0 1

--Link1--
%chk=JID_4812.chk
%mem=8GB
%nprocshared=4
# B3LYP/6-311++G(d,p) empiricaldispersion=gd3bj scf=xqc pop=npa geom=check

CID_58890794_JID_4812_Energie_kation

1 2

--Link1--
%chk=JID_4812.chk
%mem=8GB
%nprocshared=4
# B3LYP/6-311++G(d,p) empiricaldispersion=gd3bj scf=xqc pop=npa geom=check

CID_58890794_JID_4812_Energie_anion

-1 2
