%chk=JID_7674.chk
%mem=8GB
%nprocshared=4
# opt freq B3LYP/6-31G(d) empiricaldispersion=gd3bj scf=xqc

CID_113790492_JID_7674_neutraal

0 1
C          1.05121        0.05519       -0.06581
C          0.52802       -0.77595        1.11034
C          1.13914       -0.25784        2.41498
C         -1.01050       -0.74053        1.20257
N         -1.63040       -1.44027        0.08177
C         -3.09756       -1.31932        0.05021
C         -3.68079        0.07795       -0.33901
C         -3.10411        0.61412       -1.67071
O         -3.20181       -0.34635       -2.72057
C         -2.57863        0.10747       -3.91464
N         -5.15716        0.11462       -0.13517
C         -5.55668        1.31263        0.61054
C         -6.11044       -0.19325       -1.23338
C         -6.21683        0.86493       -2.34533
C         -6.02954       -1.61447       -1.85805
O         -6.83444       -2.57537       -1.15980
C         -6.26400       -3.01419        0.06306
H          0.70501        1.09255       -0.00357
H          0.72604       -0.35474       -1.02661
H          2.14663        0.06617       -0.07386
H          0.85768       -1.81448        0.97609
H          0.84591        0.77970        2.60775
H          0.81369       -0.86654        3.26525
H          2.23291       -0.29999        2.37613
H         -1.32747       -1.22240        2.13521
H         -1.33174        0.30554        1.24684
H         -1.24820       -1.14718       -0.81402
H         -3.43900       -2.07480       -0.65957
H         -3.49718       -1.62399        1.02611
H         -3.26993        0.76277        0.41487
H         -3.59785        1.54937       -1.95680
H         -2.04459        0.85979       -1.52165
H         -3.04292        1.03521       -4.26218
H         -1.50728        0.25941       -3.75185
H         -2.70933       -0.65896       -4.68316
H         -5.30845        2.23477        0.07484
H         -6.63079        1.31339        0.82683
H         -5.05640        1.34017        1.58568
H         -7.09788       -0.17874       -0.74785
H         -5.41520        0.78962       -3.08093
H         -7.15704        0.72865       -2.89364
H         -6.23499        1.88516       -1.95232
H         -6.45197       -1.58177       -2.86939
H         -5.01398       -1.99023       -1.98258
H         -5.28123       -3.46146       -0.10734
H         -6.19849       -2.19811        0.78590
H         -6.91811       -3.78300        0.48416

--Link1--
%chk=JID_7674.chk
%mem=8GB
%nprocshared=4
# B3LYP/6-311++G(d,p) empiricaldispersion=gd3bj scf=xqc pop=npa geom=check

CID_113790492_JID_7674_Energie_neutraal

0 1

--Link1--
%chk=JID_7674.chk
%mem=8GB
%nprocshared=4
# B3LYP/6-311++G(d,p) empiricaldispersion=gd3bj scf=xqc pop=npa geom=check

CID_113790492_JID_7674_Energie_kation

1 2

--Link1--
%chk=JID_7674.chk
%mem=8GB
%nprocshared=4
# B3LYP/6-311++G(d,p) empiricaldispersion=gd3bj scf=xqc pop=npa geom=check

CID_113790492_JID_7674_Energie_anion

-1 2
