%chk=JID_7709.chk
%mem=8GB
%nprocshared=4
# opt freq B3LYP/6-31G(d) empiricaldispersion=gd3bj scf=xqc

CID_113893444_JID_7709_neutraal

0 1
C          1.07122        0.06380        0.02930
C          0.57965        0.46601        1.36252
C          0.04758       -0.30153        2.37354
O         -0.27126        0.53335        3.40542
C          0.09010        1.78354        2.97053
N          0.61769        1.78213        1.76384
S         -0.15659        3.18446        3.96135
C          0.37364        4.59832        2.93251
C          1.90350        4.60954        2.63899
N          2.35301        3.95146        1.40960
C         -0.50806        4.91427        1.75340
C         -1.59955        4.24579        1.22753
N         -2.02668        4.97071        0.15448
N         -1.32699        6.09970       -0.03978
C         -0.39260        6.05232        0.91184
C         -3.11398        4.64660       -0.73526
C         -0.23860       -1.73317        2.56248
H          1.04958        0.91054       -0.66394
H          0.45219       -0.73344       -0.39354
H          2.10200       -0.29668        0.09818
H          0.21956        5.44174        3.62138
H          2.22872        5.65465        2.56161
H          2.45037        4.18980        3.49226
H          3.32309        3.66035        1.50644
H          1.80837        3.08623        1.28667
H         -2.08676        3.32328        1.50946
H          0.33711        6.85056        0.96262
H         -3.89001        5.40742       -0.62174
H         -2.73191        4.63617       -1.75926
H         -3.51336        3.66228       -0.47878
H          0.22138       -2.09829        3.48590
H         -1.31792       -1.90178        2.62472
H          0.15228       -2.32844        1.73183

--Link1--
%chk=JID_7709.chk
%mem=8GB
%nprocshared=4
# B3LYP/6-311++G(d,p) empiricaldispersion=gd3bj scf=xqc pop=npa geom=check

CID_113893444_JID_7709_Energie_neutraal

0 1

--Link1--
%chk=JID_7709.chk
%mem=8GB
%nprocshared=4
# B3LYP/6-311++G(d,p) empiricaldispersion=gd3bj scf=xqc pop=npa geom=check

CID_113893444_JID_7709_Energie_kation

1 2

--Link1--
%chk=JID_7709.chk
%mem=8GB
%nprocshared=4
# B3LYP/6-311++G(d,p) empiricaldispersion=gd3bj scf=xqc pop=npa geom=check

CID_113893444_JID_7709_Energie_anion

-1 2
