%chk=JID_6220.chk
%mem=8GB
%nprocshared=4
# opt freq B3LYP/6-31G(d) empiricaldispersion=gd3bj scf=xqc

CID_112462944_JID_6220_neutraal

0 1
C          1.03931       -0.08281        0.03997
C          0.86539        1.28863       -0.60567
N          1.70259        1.49716       -1.78622
C          1.19912        2.52882       -2.69510
C          1.24236        3.96228       -2.18117
C          3.17614        1.49784       -1.60375
C          3.64221        2.28141       -0.36418
C          3.73394        0.06405       -1.67862
N          3.24220       -0.87464       -2.46582
C          3.88195       -2.08845       -2.27166
C          4.90534       -2.05886       -1.33707
S          5.09497       -0.44928       -0.76076
C          5.77970       -3.09222       -0.80427
O          6.83931       -2.85356       -0.22038
C          5.35298       -4.53052       -0.96424
C          3.39013       -3.23135       -3.08628
H          0.90530       -0.88632       -0.69159
H          0.28336       -0.22035        0.82076
H          2.01619       -0.19584        0.51623
H         -0.19018        1.35318       -0.90048
H          1.01681        2.07358        0.14382
H          1.74466        2.47607       -3.64578
H          0.16129        2.28817       -2.95972
H          2.27041        4.31897       -2.07359
H          0.74221        4.62586       -2.89479
H          0.72943        4.06689       -1.22037
H          3.62772        1.99474       -2.47476
H          3.40805        1.76266        0.57142
H          4.72618        2.44224       -0.39061
H          3.18782        3.27460       -0.31360
H          4.31267       -4.65755       -0.65348
H          5.49448       -4.85476       -1.99714
H          5.96922       -5.16361       -0.31771
H          2.88224       -3.96601       -2.45501
H          2.67260       -2.89078       -3.84041
H          4.21525       -3.71720       -3.61469

--Link1--
%chk=JID_6220.chk
%mem=8GB
%nprocshared=4
# B3LYP/6-311++G(d,p) empiricaldispersion=gd3bj scf=xqc pop=npa geom=check

CID_112462944_JID_6220_Energie_neutraal

0 1

--Link1--
%chk=JID_6220.chk
%mem=8GB
%nprocshared=4
# B3LYP/6-311++G(d,p) empiricaldispersion=gd3bj scf=xqc pop=npa geom=check

CID_112462944_JID_6220_Energie_kation

1 2

--Link1--
%chk=JID_6220.chk
%mem=8GB
%nprocshared=4
# B3LYP/6-311++G(d,p) empiricaldispersion=gd3bj scf=xqc pop=npa geom=check

CID_112462944_JID_6220_Energie_anion

-1 2
