%chk=JID_4878.chk
%mem=8GB
%nprocshared=4
# opt freq B3LYP/6-31G(d) empiricaldispersion=gd3bj scf=xqc

CID_141887528_JID_4878_neutraal

0 1
C          0.94134       -0.04653       -0.06628
C          1.28391        1.38722        0.30726
C          0.98232        2.36842       -0.80910
C         -0.45951        2.76849       -1.03778
C          0.49426        3.74695       -0.41423
C          1.88749        2.27355       -2.01081
C          1.33397       -1.37865       -4.25084
C          0.03900       -1.56912       -3.51027
C         -0.98749       -0.62461       -3.66752
C         -2.19772       -0.76579       -2.98946
C         -2.39713       -1.85257       -2.14449
C         -1.38481       -2.79639       -1.97396
C         -0.15970       -2.66587       -2.64666
C          0.91285       -3.69748       -2.42955
H          1.54774       -0.39426       -0.90753
H         -0.11285       -0.13874       -0.34381
H          1.13018       -0.71396        0.78038
H          0.72120        1.65333        1.21073
H          2.34581        1.45329        0.57207
H         -0.79040        2.95511       -2.05340
H         -1.22547        2.33203       -0.40592
H          0.36845        3.97620        0.63839
H          0.80408        4.60089       -1.00676
H          2.93668        2.34492       -1.70627
H          1.74184        1.32278       -2.53172
H          1.69421        3.07605       -2.73120
H          1.55208       -2.25388       -4.87083
H          1.29262       -0.50927       -4.91567
H          2.15423       -1.21728       -3.54432
H         -0.84876        0.23374       -4.32122
H         -2.98316       -0.02669       -3.12038
H         -3.33917       -1.96469       -1.61494
H         -1.55761       -3.63699       -1.30540
H          0.60480       -4.44958       -1.69536
H          1.13317       -4.21923       -3.36607
H          1.82456       -3.22506       -2.05019

--Link1--
%chk=JID_4878.chk
%mem=8GB
%nprocshared=4
# B3LYP/6-311++G(d,p) empiricaldispersion=gd3bj scf=xqc pop=npa geom=check

CID_141887528_JID_4878_Energie_neutraal

0 1

--Link1--
%chk=JID_4878.chk
%mem=8GB
%nprocshared=4
# B3LYP/6-311++G(d,p) empiricaldispersion=gd3bj scf=xqc pop=npa geom=check

CID_141887528_JID_4878_Energie_kation

1 2

--Link1--
%chk=JID_4878.chk
%mem=8GB
%nprocshared=4
# B3LYP/6-311++G(d,p) empiricaldispersion=gd3bj scf=xqc pop=npa geom=check

CID_141887528_JID_4878_Energie_anion

-1 2
