%chk=JID_7703.chk
%mem=8GB
%nprocshared=4
# opt freq B3LYP/6-31G(d) empiricaldispersion=gd3bj scf=xqc

CID_82287357_JID_7703_neutraal

0 1
C          2.42900        1.51200       -0.04500
N          1.56948        0.35376       -0.14359
C          2.00095       -0.94152       -0.07920
C          0.90659       -1.77995       -0.21486
C         -0.24234       -0.93140       -0.36148
C         -1.62698       -1.16236       -0.52613
C         -2.51006       -0.08329       -0.63992
C         -2.03735        1.22307       -0.59200
C         -0.67512        1.48652       -0.42826
C          0.20299        0.39571       -0.31396
C          1.01268       -3.23578       -0.19923
N          2.21369       -3.76860        0.10400
C          2.27830       -5.10941        0.11124
C          1.20938       -5.91875       -0.18552
C          0.03433       -5.27586       -0.50029
N         -0.08970       -3.94552       -0.50334
N         -1.11244       -6.01122       -0.80114
H          2.33327        2.09331       -0.96563
H          2.11664        2.10187        0.82052
H          3.46586        1.19028        0.08213
H          3.04882       -1.17947        0.05533
H         -2.01086       -2.17792       -0.56138
H         -3.57307       -0.27195       -0.76484
H         -2.73609        2.05141       -0.68103
H         -0.31537        2.50953       -0.38962
H          3.24501       -5.52802        0.37353
H          1.28769       -6.99621       -0.16052
H         -1.84258       -5.34372       -1.03927
H         -0.95015       -6.66936       -1.55462

--Link1--
%chk=JID_7703.chk
%mem=8GB
%nprocshared=4
# B3LYP/6-311++G(d,p) empiricaldispersion=gd3bj scf=xqc pop=npa geom=check

CID_82287357_JID_7703_Energie_neutraal

0 1

--Link1--
%chk=JID_7703.chk
%mem=8GB
%nprocshared=4
# B3LYP/6-311++G(d,p) empiricaldispersion=gd3bj scf=xqc pop=npa geom=check

CID_82287357_JID_7703_Energie_kation

1 2

--Link1--
%chk=JID_7703.chk
%mem=8GB
%nprocshared=4
# B3LYP/6-311++G(d,p) empiricaldispersion=gd3bj scf=xqc pop=npa geom=check

CID_82287357_JID_7703_Energie_anion

-1 2
