%chk=JID_5786.chk
%mem=8GB
%nprocshared=4
# opt freq B3LYP/6-31G(d) empiricaldispersion=gd3bj scf=xqc

CID_83701659_JID_5786_neutraal

0 1
C          2.49200        0.00400       -0.01400
C          0.99881       -0.01268        0.13324
C          0.30473       -1.23058        0.11052
C         -1.08493       -1.29912        0.31721
C         -1.75590       -0.08781        0.55598
C         -1.08869        1.14187        0.55690
C          0.29109        1.17349        0.36173
O         -1.89158        2.22848        0.77518
C         -1.31747        3.50521        0.52357
C         -1.80769       -2.64532        0.30036
C         -3.19425       -2.73988       -0.33524
C         -2.01634       -3.29800       -1.06666
C         -1.53839       -3.54085        1.46855
O         -2.17376       -3.53150        2.50967
O         -0.50854       -4.39233        1.27143
H          2.96515       -0.21055        0.94915
H          2.81697       -0.74316       -0.74567
H          2.84280        0.97897       -0.36825
H          0.85588       -2.15559       -0.05851
H         -2.82816       -0.09561        0.74137
H          0.84056        2.10865        0.39513
H         -0.55045        3.74291        1.26743
H         -0.91547        3.56894       -0.49352
H         -2.11187        4.25244        0.61338
H         -3.90464       -3.43547        0.09987
H         -3.65886       -1.84788       -0.73871
H         -1.67552       -2.76977       -1.95036
H         -1.92730       -4.37599       -1.14156
H         -0.46192       -4.88979        2.11336

--Link1--
%chk=JID_5786.chk
%mem=8GB
%nprocshared=4
# B3LYP/6-311++G(d,p) empiricaldispersion=gd3bj scf=xqc pop=npa geom=check

CID_83701659_JID_5786_Energie_neutraal

0 1

--Link1--
%chk=JID_5786.chk
%mem=8GB
%nprocshared=4
# B3LYP/6-311++G(d,p) empiricaldispersion=gd3bj scf=xqc pop=npa geom=check

CID_83701659_JID_5786_Energie_kation

1 2

--Link1--
%chk=JID_5786.chk
%mem=8GB
%nprocshared=4
# B3LYP/6-311++G(d,p) empiricaldispersion=gd3bj scf=xqc pop=npa geom=check

CID_83701659_JID_5786_Energie_anion

-1 2
