%chk=JID_10626.chk
%mem=8GB
%nprocshared=4
# opt freq B3LYP/6-31G(d) empiricaldispersion=gd3bj scf=xqc

CID_20358597_JID_10626_neutraal

0 1
C          0.97272        0.09386        0.02111
C          0.35822       -0.11626       -1.37014
C          1.00064       -1.22540       -2.21150
C          0.33614       -2.60531       -2.10872
C         -1.12120       -2.68897       -2.58387
C         -1.34137       -2.33069       -4.04968
C         -0.70619       -3.33500       -4.96886
O         -1.05761       -4.49179       -5.12807
O          0.35917       -2.84264       -5.62686
C          0.90845       -1.13489        0.92627
C          1.32330       -0.85873        2.37571
C          0.42839        0.11281        3.15445
C         -1.04280       -0.28540        3.23462
C         -1.26033       -1.49408        4.12326
O         -1.16241       -1.40329        5.34826
C         -1.58781       -2.82092        3.46977
C         -3.02178       -2.84856        2.96199
C         -3.07777       -2.60837        1.47985
O         -2.37403       -3.12970        0.63289
O         -4.02451       -1.71846        1.13379
H          0.44087        0.93171        0.48468
H          2.01787        0.40908       -0.08653
H         -0.72185       -0.26141       -1.27298
H          0.48378        0.82865       -1.91525
H          0.99050       -0.91248       -3.26210
H          2.06052       -1.32098       -1.94530
H          0.93859       -3.31666       -2.68725
H          0.37517       -2.96015       -1.07432
H         -1.47351       -3.71391       -2.40948
H         -1.75345       -2.04466       -1.96418
H         -2.41424       -2.32389       -4.27609
H         -0.97963       -1.32393       -4.28110
H          0.67645       -3.60034       -6.16189
H         -0.09573       -1.56627        0.89776
H          1.58887       -1.89967        0.53384
H          1.36202       -1.81436        2.91258
H          2.34800       -0.46635        2.38239
H          0.83423        0.20796        4.16971
H          0.49919        1.11089        2.70781
H         -1.61815        0.53681        3.67789
H         -1.47467       -0.45115        2.24549
H         -0.84254       -3.03647        2.69915
H         -1.46882       -3.59027        4.24293
H         -3.46646       -3.83562        3.13255
H         -3.64449       -2.11209        3.48228
H         -3.97759       -1.67796        0.15498

--Link1--
%chk=JID_10626.chk
%mem=8GB
%nprocshared=4
# B3LYP/6-311++G(d,p) empiricaldispersion=gd3bj scf=xqc pop=npa geom=check

CID_20358597_JID_10626_Energie_neutraal

0 1

--Link1--
%chk=JID_10626.chk
%mem=8GB
%nprocshared=4
# B3LYP/6-311++G(d,p) empiricaldispersion=gd3bj scf=xqc pop=npa geom=check

CID_20358597_JID_10626_Energie_kation

1 2

--Link1--
%chk=JID_10626.chk
%mem=8GB
%nprocshared=4
# B3LYP/6-311++G(d,p) empiricaldispersion=gd3bj scf=xqc pop=npa geom=check

CID_20358597_JID_10626_Energie_anion

-1 2
