%chk=JID_3979.chk
%mem=8GB
%nprocshared=4
# opt freq B3LYP/6-31G(d) empiricaldispersion=gd3bj scf=xqc

CID_154682714_JID_3979_neutraal

0 1
C          0.93552        0.07389       -0.01956
C          0.21163        0.27523       -1.34895
C          0.56066       -0.80648       -2.39116
C          0.44173       -2.27502       -1.96468
N         -0.94188       -2.68120       -1.70612
C         -1.01523       -4.08454       -1.26448
C         -0.60238       -4.22892        0.20059
O         -0.68607       -3.29905        1.01192
C         -0.13188       -5.59364        0.62839
N         -1.22625        0.41545       -1.11289
C          2.20497       -2.74609        2.31104
O          2.35008       -3.37390        1.27740
O          1.00640       -2.36390        2.77819
H          0.56792       -0.80649        0.51427
H          0.79045        0.94015        0.63585
H          2.01267       -0.04597       -0.17645
H          0.54796        1.23161       -1.76832
H         -0.03466       -0.64262       -3.29981
H          1.60389       -0.64383       -2.69580
H          0.84021       -2.88847       -2.78242
H          1.07942       -2.45697       -1.09353
H         -1.31591       -2.10323       -0.95124
H         -2.05126       -4.42932       -1.34460
H         -0.39428       -4.72730       -1.89710
H         -0.92845       -6.32322        0.46522
H          0.75742       -5.86879        0.05599
H          0.12489       -5.57831        1.69124
H         -1.74555        0.09856       -1.93198
H         -1.52794       -0.16043       -0.33072
H          3.01049       -2.41639        2.98395
H          0.33264       -2.67630        2.11883

--Link1--
%chk=JID_3979.chk
%mem=8GB
%nprocshared=4
# B3LYP/6-311++G(d,p) empiricaldispersion=gd3bj scf=xqc pop=npa geom=check

CID_154682714_JID_3979_Energie_neutraal

0 1

--Link1--
%chk=JID_3979.chk
%mem=8GB
%nprocshared=4
# B3LYP/6-311++G(d,p) empiricaldispersion=gd3bj scf=xqc pop=npa geom=check

CID_154682714_JID_3979_Energie_kation

1 2

--Link1--
%chk=JID_3979.chk
%mem=8GB
%nprocshared=4
# B3LYP/6-311++G(d,p) empiricaldispersion=gd3bj scf=xqc pop=npa geom=check

CID_154682714_JID_3979_Energie_anion

-1 2
