%chk=JID_7571.chk
%mem=8GB
%nprocshared=4
# opt freq B3LYP/6-31G(d) empiricaldispersion=gd3bj scf=xqc

CID_43524413_JID_7571_neutraal

0 1
C          1.01191       -0.08936       -0.04327
C          0.67011        0.45316        1.34452
C          1.06819        1.91841        1.46141
C          0.35863        2.91816        0.79469
C          0.76198        4.24312        0.93736
C          1.85871        4.53958        1.73600
C          2.51018        3.49324        2.36398
N          2.14091        2.19850        2.24679
N         -0.74313        0.24113        1.64126
C         -1.34147        0.19972        2.86877
O         -2.56518        0.04452        2.91496
C         -0.47318        0.28576        4.14323
C         -1.29755        0.63271        5.38169
C         -1.70375       -0.71319        5.94911
C         -0.53606       -1.62219        5.57975
N          0.11914       -1.04774        4.39108
O         -2.92772       -1.17439        5.38800
H          0.43951        0.41559       -0.82987
H          0.77955       -1.15827       -0.10608
H          2.07654        0.04070       -0.26658
H          1.25188       -0.11773        2.07637
H         -0.49995        2.67639        0.17640
H          0.22255        5.03766        0.42925
H          2.19753        5.56116        1.86627
H          3.37362        3.67286        2.99839
H         -1.39799        0.18178        0.87312
H          0.29987        1.04488        4.00267
H         -0.65360        1.14829        6.10510
H         -2.15728        1.27301        5.16044
H         -1.84511       -0.66444        7.03315
H         -0.85198       -2.65006        5.37889
H          0.19179       -1.63398        6.39953
H          1.11705       -0.94514        4.57414
H         -2.92264       -0.97899        4.42684

--Link1--
%chk=JID_7571.chk
%mem=8GB
%nprocshared=4
# B3LYP/6-311++G(d,p) empiricaldispersion=gd3bj scf=xqc pop=npa geom=check

CID_43524413_JID_7571_Energie_neutraal

0 1

--Link1--
%chk=JID_7571.chk
%mem=8GB
%nprocshared=4
# B3LYP/6-311++G(d,p) empiricaldispersion=gd3bj scf=xqc pop=npa geom=check

CID_43524413_JID_7571_Energie_kation

1 2

--Link1--
%chk=JID_7571.chk
%mem=8GB
%nprocshared=4
# B3LYP/6-311++G(d,p) empiricaldispersion=gd3bj scf=xqc pop=npa geom=check

CID_43524413_JID_7571_Energie_anion

-1 2
