%chk=JID_2886.chk
%mem=8GB
%nprocshared=4
# opt freq B3LYP/6-31G(d) empiricaldispersion=gd3bj scf=xqc

CID_63033933_JID_2886_neutraal

0 1
C          1.04196        0.04248        0.08022
N          0.22053        0.97353       -0.67353
C         -1.19592        0.99279       -0.24918
C         -1.44683        1.45438        1.19883
C         -0.75078        2.73071        1.67840
S         -1.42478        4.28470        1.00868
C         -0.19721        4.72966       -0.28100
C          1.22945        4.94034        0.21911
O          1.94205        3.70510        0.23849
C         -2.05215        1.77522       -1.26057
O         -1.68065        2.38996       -2.24866
O         -3.37553        1.68931       -0.99558
H          0.64053       -0.97458        0.02794
H          1.14138        0.33425        1.12962
H          2.04783        0.01810       -0.35071
H          0.62311        1.91363       -0.62361
H         -1.56591       -0.03855       -0.34121
H         -2.52483        1.54488        1.38507
H         -1.11462        0.64484        1.86354
H         -0.92091        2.79800        2.75995
H          0.32982        2.66369        1.56945
H         -0.21829        3.98540       -1.07655
H         -0.55916        5.67290       -0.70352
H          1.75862        5.60070       -0.47620
H          1.26018        5.39334        1.21510
H          2.86022        3.91517        0.48523
H         -3.78047        2.22293       -1.71100

--Link1--
%chk=JID_2886.chk
%mem=8GB
%nprocshared=4
# B3LYP/6-311++G(d,p) empiricaldispersion=gd3bj scf=xqc pop=npa geom=check

CID_63033933_JID_2886_Energie_neutraal

0 1

--Link1--
%chk=JID_2886.chk
%mem=8GB
%nprocshared=4
# B3LYP/6-311++G(d,p) empiricaldispersion=gd3bj scf=xqc pop=npa geom=check

CID_63033933_JID_2886_Energie_kation

1 2

--Link1--
%chk=JID_2886.chk
%mem=8GB
%nprocshared=4
# B3LYP/6-311++G(d,p) empiricaldispersion=gd3bj scf=xqc pop=npa geom=check

CID_63033933_JID_2886_Energie_anion

-1 2
