%chk=JID_7728.chk
%mem=8GB
%nprocshared=4
# opt freq B3LYP/6-31G(d) empiricaldispersion=gd3bj scf=xqc

CID_65643593_JID_7728_neutraal

0 1
C          1.06300       -0.06048        0.04872
C          0.99469       -1.43966        0.69325
C          1.18367       -1.37112        2.20696
O          0.09890       -0.63046        2.76619
C          0.54660        0.13901        3.81248
N          0.35087        1.43899        3.68004
C          0.78836        2.14531        4.71380
N          1.35488        1.64403        5.81346
C          1.48502        0.32747        5.81897
N          1.09113       -0.48301        4.85257
N          2.05318       -0.24944        6.93692
C          0.66869        3.60749        4.65439
C          1.07321        4.54686        5.58943
C          0.80738        5.88771        5.18525
C          0.20392        5.94588        3.94837
S         -0.03855        4.38654        3.29378
C         -0.22667        7.14658        3.17855
H          0.25864        0.58901        0.40797
H          0.96333       -0.14778       -1.03784
H          2.02008        0.42538        0.26377
H          0.01972       -1.88413        0.46202
H          1.76751       -2.08272        0.25810
H          1.16303       -2.38348        2.62649
H          2.16397       -0.92462        2.42542
H          1.74763       -1.20835        7.03247
H          1.94213        0.35174        7.74161
H          1.54773        4.27789        6.52612
H          1.05185        6.76298        5.77513
H          0.28795        7.19423        2.21308
H         -1.30657        7.12584        2.99844
H          0.00422        8.06608        3.72638

--Link1--
%chk=JID_7728.chk
%mem=8GB
%nprocshared=4
# B3LYP/6-311++G(d,p) empiricaldispersion=gd3bj scf=xqc pop=npa geom=check

CID_65643593_JID_7728_Energie_neutraal

0 1

--Link1--
%chk=JID_7728.chk
%mem=8GB
%nprocshared=4
# B3LYP/6-311++G(d,p) empiricaldispersion=gd3bj scf=xqc pop=npa geom=check

CID_65643593_JID_7728_Energie_kation

1 2

--Link1--
%chk=JID_7728.chk
%mem=8GB
%nprocshared=4
# B3LYP/6-311++G(d,p) empiricaldispersion=gd3bj scf=xqc pop=npa geom=check

CID_65643593_JID_7728_Energie_anion

-1 2
