%chk=JID_10016.chk
%mem=8GB
%nprocshared=4
# opt freq B3LYP/6-31G(d) empiricaldispersion=gd3bj scf=xqc

CID_61108148_JID_10016_neutraal

0 1
C          2.54100       -1.13900        0.05100
C          1.85155       -0.98401       -1.27617
C          0.86113       -1.88939       -1.71526
C          0.17760       -1.69971       -2.93819
C          0.47020       -0.55251       -3.68442
C          1.45644        0.34390       -3.26882
C          2.14064        0.13153       -2.07293
N         -0.92049       -2.48647       -3.32572
C          0.51780       -3.05195       -0.86175
O         -0.07209       -2.81590        0.18970
N          0.86573       -4.33626       -1.30523
C          1.82050       -4.58643       -2.40414
C          3.26497       -4.76380       -1.91892
O          3.43624       -6.07074       -1.36415
C          4.74291       -6.24745       -0.83330
C          0.45203       -5.51291       -0.52006
C          0.97990       -5.51915        0.91552
C         -1.05221       -5.65201       -0.56300
C         -1.74302       -6.12291       -1.82031
C         -1.69791       -7.01523       -0.61121
H          1.87901       -0.81032        0.85819
H          2.83768       -2.17708        0.22690
H          3.45578       -0.53787        0.09284
H         -0.08469       -0.33732       -4.59437
H          1.66846        1.22829       -3.86490
H          2.88286        0.85994       -1.75228
H         -0.95451       -3.40889       -2.89446
H         -1.11345       -2.50049       -4.32063
H          1.47916       -5.47421       -2.94898
H          1.80602       -3.75520       -3.11017
H          3.94324       -4.66431       -2.77402
H          3.52055       -4.00428       -1.17286
H          5.49576       -6.11922       -1.61689
H          4.92261       -5.54077       -0.01742
H          4.81891       -7.26369       -0.43756
H          0.87680       -6.39631       -1.01329
H          0.49776       -4.76435        1.54350
H          0.78497       -6.48964        1.38534
H          2.05884       -5.33866        0.94232
H         -1.55409       -4.88946        0.02459
H         -2.68969       -5.66022       -2.07547
H         -1.13664       -6.39872       -2.67491
H         -1.06244       -7.89247       -0.64989
H         -2.61432       -7.15739       -0.04931

--Link1--
%chk=JID_10016.chk
%mem=8GB
%nprocshared=4
# B3LYP/6-311++G(d,p) empiricaldispersion=gd3bj scf=xqc pop=npa geom=check

CID_61108148_JID_10016_Energie_neutraal

0 1

--Link1--
%chk=JID_10016.chk
%mem=8GB
%nprocshared=4
# B3LYP/6-311++G(d,p) empiricaldispersion=gd3bj scf=xqc pop=npa geom=check

CID_61108148_JID_10016_Energie_kation

1 2

--Link1--
%chk=JID_10016.chk
%mem=8GB
%nprocshared=4
# B3LYP/6-311++G(d,p) empiricaldispersion=gd3bj scf=xqc pop=npa geom=check

CID_61108148_JID_10016_Energie_anion

-1 2
