%chk=JID_5129.chk
%mem=8GB
%nprocshared=4
# opt freq B3LYP/6-31G(d) empiricaldispersion=gd3bj scf=xqc

CID_105459525_JID_5129_neutraal

0 1
C         -2.13100       -0.04600       -0.06100
N         -0.70522       -0.22115       -0.20844
C          0.07980       -1.30843        0.12294
C          1.37857       -0.92432       -0.20729
C          1.25547        0.38577       -0.70583
N         -0.00369        0.81417       -0.70562
C          2.60497       -1.67946       -0.07598
O          3.70656       -1.23529       -0.38558
C         -0.42446       -2.61277        0.71735
C         -1.09422       -2.41410        2.09068
C         -2.59222       -2.69407        2.19852
C         -2.93932       -4.17938        2.22581
C         -2.93464       -4.84955        0.85858
C         -1.58544       -4.83603        0.14930
C         -1.16939       -3.44811       -0.33415
H         -2.36036        0.03951        1.00265
H         -2.43788        0.87319       -0.56915
H         -2.65083       -0.88580       -0.51940
H          2.03879        1.04112       -1.06741
H          2.51340       -2.70131        0.32347
H          0.48062       -3.19338        0.94606
H         -0.57965       -3.05989        2.81644
H         -0.90820       -1.39485        2.45444
H         -3.15796       -2.18348        1.41456
H         -2.93278       -2.26343        3.14935
H         -3.94891       -4.28472        2.64313
H         -2.26863       -4.71504        2.90821
H         -3.69498       -4.38477        0.21838
H         -3.24405       -5.89375        0.99105
H         -1.67444       -5.48448       -0.73174
H         -0.80969       -5.28007        0.78373
H         -2.03959       -2.91992       -0.73479
H         -0.49471       -3.58543       -1.19117

--Link1--
%chk=JID_5129.chk
%mem=8GB
%nprocshared=4
# B3LYP/6-311++G(d,p) empiricaldispersion=gd3bj scf=xqc pop=npa geom=check

CID_105459525_JID_5129_Energie_neutraal

0 1

--Link1--
%chk=JID_5129.chk
%mem=8GB
%nprocshared=4
# B3LYP/6-311++G(d,p) empiricaldispersion=gd3bj scf=xqc pop=npa geom=check

CID_105459525_JID_5129_Energie_kation

1 2

--Link1--
%chk=JID_5129.chk
%mem=8GB
%nprocshared=4
# B3LYP/6-311++G(d,p) empiricaldispersion=gd3bj scf=xqc pop=npa geom=check

CID_105459525_JID_5129_Energie_anion

-1 2
