%chk=JID_7936.chk
%mem=8GB
%nprocshared=4
# opt freq B3LYP/6-31G(d) empiricaldispersion=gd3bj scf=xqc

CID_64345689_JID_7936_neutraal

0 1
C          1.06701       -0.07056        0.02304
C          0.53867        0.26038        1.42344
C         -0.70407        1.15534        1.30678
C         -1.22426        1.66352        2.64660
C         -2.15113        0.66981        3.31565
O         -3.34403        0.93936        3.45823
N         -1.59248       -0.52643        3.73843
C         -0.16575       -0.82112        3.64028
C          0.28524       -1.04206        2.19866
C         -2.45204       -1.53393        4.36491
C         -2.34973       -1.54584        5.89527
C         -2.91725       -0.30496        6.59405
C         -4.43401       -0.14541        6.49155
C         -5.16379       -1.10793        7.40962
O         -5.21570       -0.92422        8.62745
N         -5.76848       -2.22119        6.86964
N         -5.70070       -2.58164        5.51713
H          1.30939        0.84427       -0.52811
H          0.32726       -0.63128       -0.55849
H          1.97943       -0.67332        0.08301
H          1.32340        0.82482        1.94476
H         -0.44105        2.02963        0.69725
H         -1.49912        0.62443        0.76776
H         -1.81212        2.57337        2.46935
H         -0.41759        1.95127        3.32842
H          0.04203       -1.73026        4.21623
H          0.40028       -0.01160        4.11368
H         -0.44471       -1.66536        1.66654
H          1.22465       -1.60943        2.22455
H         -3.48799       -1.38626        4.04715
H         -2.14894       -2.51149        3.97055
H         -2.85289       -2.44108        6.27729
H         -1.29649       -1.64446        6.18533
H         -2.63352       -0.35313        7.65322
H         -2.43544        0.59350        6.19233
H         -4.70889        0.86312        6.82651
H         -4.79003       -0.21652        5.46216
H         -6.19915       -2.83961        7.55547
H         -6.09142       -3.51960        5.40023
H         -6.31770       -1.96063        4.98389

--Link1--
%chk=JID_7936.chk
%mem=8GB
%nprocshared=4
# B3LYP/6-311++G(d,p) empiricaldispersion=gd3bj scf=xqc pop=npa geom=check

CID_64345689_JID_7936_Energie_neutraal

0 1

--Link1--
%chk=JID_7936.chk
%mem=8GB
%nprocshared=4
# B3LYP/6-311++G(d,p) empiricaldispersion=gd3bj scf=xqc pop=npa geom=check

CID_64345689_JID_7936_Energie_kation

1 2

--Link1--
%chk=JID_7936.chk
%mem=8GB
%nprocshared=4
# B3LYP/6-311++G(d,p) empiricaldispersion=gd3bj scf=xqc pop=npa geom=check

CID_64345689_JID_7936_Energie_anion

-1 2
