%chk=JID_5684.chk
%mem=8GB
%nprocshared=4
# opt freq B3LYP/6-31G(d) empiricaldispersion=gd3bj scf=xqc

CID_80171306_JID_5684_neutraal

0 1
C         -0.99500       -0.07800       -1.49900
C         -0.65730       -0.11129        0.00009
C          0.33596       -1.23905        0.32460
C          1.69534       -0.64569       -0.02797
N          1.52768        0.79776        0.06668
C          0.15284        1.12934        0.40755
C          2.62355        1.61319       -0.06165
O          3.74784        1.10904       -0.20079
C          2.52119        3.13616       -0.11294
C          1.66466        3.74571       -1.22694
C          1.25700        5.13019       -0.71370
C          2.06655        5.34965        0.56645
C          2.22738        3.94165        1.16090
N          1.02030        3.60671        1.91349
C         -1.94644       -0.24140        0.81183
H         -0.10125        0.02900       -2.12278
H         -1.50304       -0.99929       -1.80510
H         -1.65849        0.76285       -1.73059
H          0.31449       -1.47104        1.39723
H          0.13759       -2.16862       -0.21820
H          1.98757       -0.88894       -1.05555
H          2.48236       -0.98995        0.65093
H         -0.19527        2.04370       -0.07039
H          0.11758        1.25776        1.49459
H          3.55241        3.43008       -0.38121
H          0.79083        3.15299       -1.50276
H          2.26200        3.84326       -2.14188
H          0.18323        5.14312       -0.49413
H          1.44967        5.91396       -1.45283
H          1.58116        6.06006        1.24410
H          3.05228        5.76110        0.31430
H          3.08107        3.89679        1.84583
H          1.00601        4.15210        2.77659
H          0.18717        3.89356        1.40219
H         -2.48098       -1.16257        0.55505
H         -1.74222       -0.26592        1.88801
H         -2.61706        0.60387        0.62188

--Link1--
%chk=JID_5684.chk
%mem=8GB
%nprocshared=4
# B3LYP/6-311++G(d,p) empiricaldispersion=gd3bj scf=xqc pop=npa geom=check

CID_80171306_JID_5684_Energie_neutraal

0 1

--Link1--
%chk=JID_5684.chk
%mem=8GB
%nprocshared=4
# B3LYP/6-311++G(d,p) empiricaldispersion=gd3bj scf=xqc pop=npa geom=check

CID_80171306_JID_5684_Energie_kation

1 2

--Link1--
%chk=JID_5684.chk
%mem=8GB
%nprocshared=4
# B3LYP/6-311++G(d,p) empiricaldispersion=gd3bj scf=xqc pop=npa geom=check

CID_80171306_JID_5684_Energie_anion

-1 2
