%chk=JID_229.chk
%mem=8GB
%nprocshared=4
# opt freq B3LYP/6-31G(d) empiricaldispersion=gd3bj scf=xqc

CID_71435510_JID_229_neutraal

0 1
C          0.96072       -0.04126       -0.08219
N          0.16906       -1.20269       -0.54316
C          0.38484       -1.52620       -1.96811
C          1.19073       -2.80962       -2.12187
C          0.51274       -3.94660       -1.36601
C          0.35468       -3.59504        0.11262
C         -0.27939       -2.22596        0.32982
C         -1.25406       -2.03600        1.24672
C         -1.86914       -3.12083        2.11576
N         -2.37940       -4.02078        2.83670
H          0.65226        0.26101        0.92385
H          0.80991        0.81454       -0.74806
H          2.02493       -0.29662       -0.05902
H         -0.59518       -1.64200       -2.44753
H          0.89261       -0.70692       -2.49075
H          2.20681       -2.66299       -1.73551
H          1.27885       -3.06832       -3.18276
H          1.10391       -4.86384       -1.46622
H         -0.47187       -4.14851       -1.80620
H          1.34667       -3.58196        0.58310
H         -0.20897       -4.39879        0.59722
H         -1.70857       -1.05829        1.36018

--Link1--
%chk=JID_229.chk
%mem=8GB
%nprocshared=4
# B3LYP/6-311++G(d,p) empiricaldispersion=gd3bj scf=xqc pop=npa geom=check

CID_71435510_JID_229_Energie_neutraal

0 1

--Link1--
%chk=JID_229.chk
%mem=8GB
%nprocshared=4
# B3LYP/6-311++G(d,p) empiricaldispersion=gd3bj scf=xqc pop=npa geom=check

CID_71435510_JID_229_Energie_kation

1 2

--Link1--
%chk=JID_229.chk
%mem=8GB
%nprocshared=4
# B3LYP/6-311++G(d,p) empiricaldispersion=gd3bj scf=xqc pop=npa geom=check

CID_71435510_JID_229_Energie_anion

-1 2
