%chk=JID_2697.chk
%mem=8GB
%nprocshared=4
# opt freq B3LYP/6-31G(d) empiricaldispersion=gd3bj scf=xqc

CID_63181580_JID_2697_neutraal

0 1
C          1.07079        0.04801       -0.05181
C          1.55724        1.34985        0.56153
N          1.85550        2.30924       -0.49305
C          3.02066        2.35914       -1.03378
C          3.19144        3.40390       -2.14704
C          4.53179        4.14397       -2.07236
C          4.69253        5.13098       -3.22887
C          4.48770        4.48205       -4.60603
C          3.15330        3.72518       -4.65720
C          2.98665        2.73158       -3.50925
C          5.66246        3.57713       -4.98804
N          4.08319        1.54143       -0.74896
H          0.19444        0.21917       -0.68590
H          0.79168       -0.66137        0.73329
H          1.84338       -0.41670       -0.67218
H          0.76209        1.76882        1.18850
H          2.40886        1.17715        1.22886
H          2.39433        4.15021       -2.01560
H          4.60213        4.68312       -1.11965
H          5.37202        3.44077       -2.08407
H          5.68160        5.60119       -3.17517
H          3.95813        5.93757       -3.10626
H          4.44787        5.28504       -5.35357
H          3.04956        3.20103       -5.61458
H          2.33314        4.45359       -4.61200
H          3.68797        1.89752       -3.63269
H          1.98314        2.29030       -3.55757
H          5.51691        3.16243       -5.99135
H          6.59855        4.14539       -4.99677
H          5.78712        2.73897       -4.29628
H          3.86740        0.67935       -0.26652
H          4.77850        1.42187       -1.47580

--Link1--
%chk=JID_2697.chk
%mem=8GB
%nprocshared=4
# B3LYP/6-311++G(d,p) empiricaldispersion=gd3bj scf=xqc pop=npa geom=check

CID_63181580_JID_2697_Energie_neutraal

0 1

--Link1--
%chk=JID_2697.chk
%mem=8GB
%nprocshared=4
# B3LYP/6-311++G(d,p) empiricaldispersion=gd3bj scf=xqc pop=npa geom=check

CID_63181580_JID_2697_Energie_kation

1 2

--Link1--
%chk=JID_2697.chk
%mem=8GB
%nprocshared=4
# B3LYP/6-311++G(d,p) empiricaldispersion=gd3bj scf=xqc pop=npa geom=check

CID_63181580_JID_2697_Energie_anion

-1 2
