%chk=JID_5125.chk
%mem=8GB
%nprocshared=4
# opt freq B3LYP/6-31G(d) empiricaldispersion=gd3bj scf=xqc

CID_129075403_JID_5125_neutraal

0 1
C          0.91402       -0.02934       -0.04180
C          0.47508        0.62188        1.23118
C          0.22606       -0.13717        2.37822
C         -0.16777        0.49856        3.54791
C         -0.30795        1.87852        3.54451
N         -0.07536        2.65183        2.46211
C          0.34246        2.00640        1.34875
O          0.52764        2.81423        0.22904
C          1.82881        3.28562        0.17034
O          2.76952        2.90577        0.85927
C          1.96403        4.28923       -0.98256
C          0.80987        5.30210       -0.96371
C          3.28872        5.05505       -0.83428
C          1.96967        3.51150       -2.30410
O         -0.40463       -0.26762        4.64848
H          0.36075        0.37562       -0.89545
H          0.72893       -1.10857       -0.02017
H          1.98527        0.13055       -0.19845
H          0.33651       -1.21799        2.36728
H         -0.62092        2.42278        4.42931
H          0.73749        5.79777        0.01111
H          0.94866        6.07540       -1.72761
H         -0.15576        4.82212       -1.15858
H          4.14912        4.37653       -0.86607
H          3.41623        5.78933       -1.63764
H          3.33027        5.59050        0.12140
H          2.77781        2.77105       -2.32290
H          1.03005        2.96701       -2.45174
H          2.10567        4.18228       -3.15954
H         -0.63022        0.31118        5.39607

--Link1--
%chk=JID_5125.chk
%mem=8GB
%nprocshared=4
# B3LYP/6-311++G(d,p) empiricaldispersion=gd3bj scf=xqc pop=npa geom=check

CID_129075403_JID_5125_Energie_neutraal

0 1

--Link1--
%chk=JID_5125.chk
%mem=8GB
%nprocshared=4
# B3LYP/6-311++G(d,p) empiricaldispersion=gd3bj scf=xqc pop=npa geom=check

CID_129075403_JID_5125_Energie_kation

1 2

--Link1--
%chk=JID_5125.chk
%mem=8GB
%nprocshared=4
# B3LYP/6-311++G(d,p) empiricaldispersion=gd3bj scf=xqc pop=npa geom=check

CID_129075403_JID_5125_Energie_anion

-1 2
