%chk=JID_8690.chk
%mem=8GB
%nprocshared=4
# opt freq B3LYP/6-31G(d) empiricaldispersion=gd3bj scf=xqc

CID_115796188_JID_8690_neutraal

0 1
C          0.91304       -0.03934       -0.02983
C          0.33945        1.15511        0.70653
C          1.23991        1.66736        1.81222
C          0.76301        3.09939        1.96681
C          0.25895        3.47183        0.58216
O          0.19032        2.26076       -0.19215
C          1.78055        4.08023        2.51900
O          1.44949        4.96484        3.30886
C          3.18576        3.99664        2.06629
N          3.38853        4.03879        0.72123
C          4.68629        3.96130        0.34050
C          5.72946        3.82768        1.24870
N          5.52299        3.76253        2.58434
C          4.22757        3.85784        2.98357
O          3.92931        3.71599        4.32181
C          5.07711        3.66245        5.16140
O          7.00646        3.74863        0.73661
C          8.00349        3.58243        1.73997
H          0.23970       -0.34722       -0.83688
H          1.06212       -0.88728        0.64514
H          1.87034        0.20994       -0.50068
H         -0.65357        0.90770        1.10162
H          1.13764        1.08700        2.73476
H          2.28947        1.60957        1.50666
H         -0.08530        3.09842        2.66531
H          0.88608        4.18924        0.04658
H         -0.74965        3.89610        0.63635
H          4.87357        4.00660       -0.72702
H          5.68225        4.57071        5.06728
H          4.72963        3.59834        6.19705
H          5.67518        2.76786        4.95590
H          8.02605        4.43825        2.42350
H          7.86057        2.64459        2.28807
H          8.97495        3.53040        1.23897

--Link1--
%chk=JID_8690.chk
%mem=8GB
%nprocshared=4
# B3LYP/6-311++G(d,p) empiricaldispersion=gd3bj scf=xqc pop=npa geom=check

CID_115796188_JID_8690_Energie_neutraal

0 1

--Link1--
%chk=JID_8690.chk
%mem=8GB
%nprocshared=4
# B3LYP/6-311++G(d,p) empiricaldispersion=gd3bj scf=xqc pop=npa geom=check

CID_115796188_JID_8690_Energie_kation

1 2

--Link1--
%chk=JID_8690.chk
%mem=8GB
%nprocshared=4
# B3LYP/6-311++G(d,p) empiricaldispersion=gd3bj scf=xqc pop=npa geom=check

CID_115796188_JID_8690_Energie_anion

-1 2
