%chk=JID_8243.chk
%mem=8GB
%nprocshared=4
# opt freq B3LYP/6-31G(d) empiricaldispersion=gd3bj scf=xqc

CID_108097644_JID_8243_neutraal

0 1
C          1.06920       -0.03320       -0.06411
O          0.51460        1.18329       -0.53564
C          0.76746        2.30582        0.31060
C         -0.00820        2.28980        1.64008
N          0.65935        1.58956        2.75781
C          2.00717        2.03239        3.16765
C          2.18569        3.54470        3.34162
C          1.36143        4.16884        4.46760
N          1.78860        3.70327        5.78199
C         -0.00615        0.49968        3.32146
O         -1.10972        0.10803        2.94134
C          0.69074       -0.28847        4.35600
C          1.20522       -1.48333        4.01907
N          1.84572       -2.30078        4.91743
C          1.93311       -1.96330        6.24169
C          1.45240       -0.81257        6.72935
C          0.79244        0.12969        5.78003
O          0.38092        1.21428        6.18152
H          0.46778       -0.43745        0.75116
H          2.10821        0.09859        0.25228
H          1.04703       -0.75693       -0.88375
H          1.84628        2.43488        0.44133
H          0.42037        3.17525       -0.25944
H         -0.16713        3.32025        1.97516
H         -1.00226        1.86656        1.46291
H          2.32830        1.52887        4.08112
H          2.69438        1.68220        2.38857
H          3.24933        3.74414        3.52824
H          1.95014        4.06380        2.40578
H          1.49574        5.25582        4.43051
H          0.29253        3.97337        4.33302
H          1.35508        4.29292        6.49412
H          1.35509        2.78371        5.95628
H          1.13627       -1.88187        3.01084
H          2.12683       -3.23331        4.62446
H          2.41990       -2.69912        6.87499
H          1.51307       -0.52601        7.76954

--Link1--
%chk=JID_8243.chk
%mem=8GB
%nprocshared=4
# B3LYP/6-311++G(d,p) empiricaldispersion=gd3bj scf=xqc pop=npa geom=check

CID_108097644_JID_8243_Energie_neutraal

0 1

--Link1--
%chk=JID_8243.chk
%mem=8GB
%nprocshared=4
# B3LYP/6-311++G(d,p) empiricaldispersion=gd3bj scf=xqc pop=npa geom=check

CID_108097644_JID_8243_Energie_kation

1 2

--Link1--
%chk=JID_8243.chk
%mem=8GB
%nprocshared=4
# B3LYP/6-311++G(d,p) empiricaldispersion=gd3bj scf=xqc pop=npa geom=check

CID_108097644_JID_8243_Energie_anion

-1 2
