%chk=JID_3133.chk
%mem=8GB
%nprocshared=4
# opt freq B3LYP/6-31G(d) empiricaldispersion=gd3bj scf=xqc

CID_60206713_JID_3133_neutraal

0 1
C          0.92985       -0.03043        0.06444
C          0.83200        0.73194       -1.25507
C          1.12289       -0.09837       -2.53784
C          0.31529       -1.41750       -2.50311
C          0.67625        0.69114       -3.81013
C          1.05208        2.17897       -3.91572
C          2.53829        2.51158       -4.07263
C          3.22049        1.94771       -5.33307
C          2.60527        2.49452       -6.62205
C          4.71690        2.27014       -5.29675
C          2.62098       -0.45606       -2.61722
O          3.47334       -0.03852       -1.83922
N          3.00200       -1.28479       -3.63121
H          0.14432       -0.78728        0.14888
H          0.80292        0.66325        0.90236
H          1.89906       -0.52217        0.18286
H         -0.17963        1.15359       -1.31759
H          1.52227        1.58256       -1.19682
H         -0.73637       -1.22957       -2.25857
H          0.33464       -1.93035       -3.47162
H          0.71863       -2.11962       -1.76474
H          1.00781        0.17433       -4.71823
H         -0.42234        0.65745       -3.84919
H          0.50491        2.60335       -4.76652
H          0.66628        2.71797       -3.04268
H          2.63481        3.60583       -4.08256
H          3.07925        2.18157       -3.18023
H          3.12187        0.85813       -5.34864
H          2.62499        3.58940       -6.63896
H          3.15542        2.13390       -7.49801
H          1.56699        2.16897       -6.73650
H          5.18387        1.84711       -4.40088
H          5.22765        1.84755       -6.16854
H          4.89138        3.35150       -5.29293
H          2.38218       -1.60049       -4.36218
H          3.98865       -1.49515       -3.70826

--Link1--
%chk=JID_3133.chk
%mem=8GB
%nprocshared=4
# B3LYP/6-311++G(d,p) empiricaldispersion=gd3bj scf=xqc pop=npa geom=check

CID_60206713_JID_3133_Energie_neutraal

0 1

--Link1--
%chk=JID_3133.chk
%mem=8GB
%nprocshared=4
# B3LYP/6-311++G(d,p) empiricaldispersion=gd3bj scf=xqc pop=npa geom=check

CID_60206713_JID_3133_Energie_kation

1 2

--Link1--
%chk=JID_3133.chk
%mem=8GB
%nprocshared=4
# B3LYP/6-311++G(d,p) empiricaldispersion=gd3bj scf=xqc pop=npa geom=check

CID_60206713_JID_3133_Energie_anion

-1 2
