%chk=JID_7581.chk
%mem=8GB
%nprocshared=4
# opt freq B3LYP/6-31G(d) empiricaldispersion=gd3bj scf=xqc

CID_834400_JID_7581_neutraal

0 1
C          1.06039       -0.05631       -0.05641
O          0.16140       -0.94557       -0.70624
C          0.64511       -1.64124       -1.78054
C         -0.29576       -2.45146       -2.41987
C          0.06052       -3.21231       -3.53261
C          1.36702       -3.16671       -4.01435
C          2.32965       -2.36485       -3.38402
C          1.95613       -1.60305       -2.26229
C          3.74571       -2.31223       -3.91290
N          4.36962       -3.63280       -3.86824
C          5.74551       -3.62671       -4.35781
C          6.72864       -3.04122       -3.37519
C          7.11216       -3.75839       -2.23715
C          8.00747       -3.17649       -1.35360
N          8.53641       -1.94623       -1.52229
C          8.15551       -1.26979       -2.62628
C          7.26748       -1.76594       -3.56826
H          0.51491        0.43788        0.75332
H          1.41376        0.72071       -0.74239
H          1.89842       -0.60082        0.39098
H         -1.31616       -2.48853       -2.04671
H         -0.67913       -3.84023       -4.02153
H          1.64162       -3.76622       -4.88011
H          2.70884       -0.98771       -1.78021
H          3.71030       -1.93775       -4.94348
H          4.32307       -1.58957       -3.32522
H          4.34340       -3.97869       -2.91072
H          6.04329       -4.66358       -4.55829
H          5.81207       -3.11747       -5.32761
H          6.72513       -4.75309       -2.04096
H          8.33230       -3.70143       -0.45978
H          8.59689       -0.28352       -2.73867
H          7.00310       -1.16503       -4.43186

--Link1--
%chk=JID_7581.chk
%mem=8GB
%nprocshared=4
# B3LYP/6-311++G(d,p) empiricaldispersion=gd3bj scf=xqc pop=npa geom=check

CID_834400_JID_7581_Energie_neutraal

0 1

--Link1--
%chk=JID_7581.chk
%mem=8GB
%nprocshared=4
# B3LYP/6-311++G(d,p) empiricaldispersion=gd3bj scf=xqc pop=npa geom=check

CID_834400_JID_7581_Energie_kation

1 2

--Link1--
%chk=JID_7581.chk
%mem=8GB
%nprocshared=4
# B3LYP/6-311++G(d,p) empiricaldispersion=gd3bj scf=xqc pop=npa geom=check

CID_834400_JID_7581_Energie_anion

-1 2
