%chk=JID_3197.chk
%mem=8GB
%nprocshared=4
# opt freq B3LYP/6-31G(d) empiricaldispersion=gd3bj scf=xqc

CID_130916942_JID_3197_neutraal

0 1
C         -1.27400        0.49200        0.03800
C          0.18208        0.73800       -0.03503
N          0.93534       -0.25939        0.27092
O          0.07167       -1.34795        0.55595
C         -1.25501       -1.03209        0.06783
C         -2.26936       -1.57560        1.10486
O         -2.24198       -2.99846        1.25255
C         -1.49870       -1.62965       -1.32444
C         -0.51604       -2.39329       -1.97677
C         -0.75403       -2.94553       -3.23738
C         -1.97815       -2.74541       -3.86869
C         -2.96572       -1.99184       -3.24111
C         -2.72953       -1.43855       -1.98052
H         -1.79102        0.94270       -0.81200
H         -1.63940        0.94691        0.96427
H          0.57196        1.73509       -0.28237
H         -2.04757       -1.16582        2.09662
H         -3.29563       -1.29059        0.85061
H         -2.11225       -3.39500        0.37239
H          0.45359       -2.56635       -1.51061
H          0.02089       -3.53213       -3.72495
H         -2.16093       -3.17647       -4.84958
H         -3.92221       -1.83541       -3.73387
H         -3.52342       -0.85582       -1.51778

--Link1--
%chk=JID_3197.chk
%mem=8GB
%nprocshared=4
# B3LYP/6-311++G(d,p) empiricaldispersion=gd3bj scf=xqc pop=npa geom=check

CID_130916942_JID_3197_Energie_neutraal

0 1

--Link1--
%chk=JID_3197.chk
%mem=8GB
%nprocshared=4
# B3LYP/6-311++G(d,p) empiricaldispersion=gd3bj scf=xqc pop=npa geom=check

CID_130916942_JID_3197_Energie_kation

1 2

--Link1--
%chk=JID_3197.chk
%mem=8GB
%nprocshared=4
# B3LYP/6-311++G(d,p) empiricaldispersion=gd3bj scf=xqc pop=npa geom=check

CID_130916942_JID_3197_Energie_anion

-1 2
