%chk=JID_4346.chk
%mem=8GB
%nprocshared=4
# opt freq B3LYP/6-31G(d) empiricaldispersion=gd3bj scf=xqc

CID_148939639_JID_4346_neutraal

0 1
C          0.92347       -0.05665        0.03056
C          0.46753       -1.31049       -0.67562
C         -0.61969       -2.02954       -0.29786
C         -1.15053       -3.17933       -1.16392
C         -0.51411       -4.54621       -0.83505
C         -0.80757       -5.09051        0.57822
C         -2.21610       -5.24278        0.92565
C         -3.19346       -4.89561        1.72094
C         -3.30639       -5.98157        0.53491
N         -0.83809       -5.61273       -1.86174
O         -1.82902       -5.35752       -2.55463
N         -1.39178       -1.77027        0.83441
C         -0.85952       -1.49947        2.16018
C          1.33458       -1.62906       -1.87170
H          1.67960       -0.29658        0.78425
H          0.09676        0.48324        0.49894
H          1.36743        0.64790       -0.68225
H         -2.24441       -3.23142       -1.07229
H         -0.99456       -2.93458       -2.22321
H          0.57590       -4.44922       -0.92427
H         -0.31655       -6.06582        0.69737
H         -0.33108       -4.43510        1.31690
H         -4.20468       -4.92474        2.08333
H         -3.91926       -5.63676       -0.28420
H         -3.43172       -6.98660        0.90767
H         -2.22057       -2.36305        0.88854
H         -1.56640       -1.85700        2.91606
H          0.09319       -2.01308        2.32382
H         -0.72918       -0.42649        2.32050
H          1.19837       -0.86913       -2.64825
H          2.38949       -1.63361       -1.57503
H          1.13618       -2.60446       -2.31969

--Link1--
%chk=JID_4346.chk
%mem=8GB
%nprocshared=4
# B3LYP/6-311++G(d,p) empiricaldispersion=gd3bj scf=xqc pop=npa geom=check

CID_148939639_JID_4346_Energie_neutraal

0 1

--Link1--
%chk=JID_4346.chk
%mem=8GB
%nprocshared=4
# B3LYP/6-311++G(d,p) empiricaldispersion=gd3bj scf=xqc pop=npa geom=check

CID_148939639_JID_4346_Energie_kation

1 2

--Link1--
%chk=JID_4346.chk
%mem=8GB
%nprocshared=4
# B3LYP/6-311++G(d,p) empiricaldispersion=gd3bj scf=xqc pop=npa geom=check

CID_148939639_JID_4346_Energie_anion

-1 2
