%chk=JID_1427.chk
%mem=8GB
%nprocshared=4
# opt freq B3LYP/6-31G(d) empiricaldispersion=gd3bj scf=xqc

CID_61261785_JID_1427_neutraal

0 1
C          1.04596       -0.06316        0.06244
C          0.50138       -0.40939        1.44991
C          0.88501        0.68677        2.44570
C         -1.02538       -0.59208        1.44153
N         -1.47188       -1.73628        0.66875
C         -1.50199       -3.05648        1.05715
C         -2.04310       -3.73581       -0.00890
C         -2.30122       -2.75225       -0.98195
N         -1.96574       -1.53503       -0.57185
N         -2.83840       -3.00490       -2.18105
N         -1.07317       -3.50987        2.25383
H          0.57475        0.84211       -0.33516
H          0.87200       -0.87815       -0.64705
H          2.12702        0.10884        0.10223
H          0.97807       -1.34237        1.77557
H          0.44317        1.64960        2.16702
H          0.54019        0.43415        3.45399
H          1.97218        0.81214        2.48747
H         -1.40400       -0.73394        2.46100
H         -1.52436        0.29852        1.03935
H         -2.22211       -4.79731       -0.07627
H         -3.16997       -2.19832       -2.69809
H         -3.38021       -3.84486       -2.33583
H         -0.50544       -2.94938        2.88228
H         -0.98088       -4.51017        2.41573

--Link1--
%chk=JID_1427.chk
%mem=8GB
%nprocshared=4
# B3LYP/6-311++G(d,p) empiricaldispersion=gd3bj scf=xqc pop=npa geom=check

CID_61261785_JID_1427_Energie_neutraal

0 1

--Link1--
%chk=JID_1427.chk
%mem=8GB
%nprocshared=4
# B3LYP/6-311++G(d,p) empiricaldispersion=gd3bj scf=xqc pop=npa geom=check

CID_61261785_JID_1427_Energie_kation

1 2

--Link1--
%chk=JID_1427.chk
%mem=8GB
%nprocshared=4
# B3LYP/6-311++G(d,p) empiricaldispersion=gd3bj scf=xqc pop=npa geom=check

CID_61261785_JID_1427_Energie_anion

-1 2
