%chk=JID_4277.chk
%mem=8GB
%nprocshared=4
# opt freq B3LYP/6-31G(d) empiricaldispersion=gd3bj scf=xqc

CID_134987266_JID_4277_neutraal

0 1
C          0.96510       -0.04942       -0.07962
C          1.32879        0.99145        0.95197
C          1.44400        2.38257        0.34303
C          0.23873        2.82055       -0.49418
C         -1.13171        2.66290        0.17422
C         -1.31093        3.35590        1.52844
C         -1.06159        4.86228        1.52450
C         -1.76874        5.59276        0.37207
C         -1.56826        5.48625        2.81460
C         -2.00288        6.02149        3.92124
S         -2.56871        6.72250        5.35091
C         -4.20632        5.93730        5.43711
C         -5.18182        6.56335        4.45486
O          0.33060        5.14043        1.43991
H         -0.04190        0.07231       -0.48367
H          1.00776       -1.04676        0.37152
H          1.67200       -0.03774       -0.91604
H          0.58833        0.97883        1.75830
H          2.28901        0.72720        1.41071
H          1.63305        3.09397        1.15203
H          2.33371        2.41903       -0.29872
H          0.39299        3.85912       -0.80553
H          0.22628        2.24764       -1.43020
H         -1.89785        3.02270       -0.52372
H         -1.36122        1.60151        0.31474
H         -2.33864        3.15544        1.86133
H         -0.65550        2.88090        2.26846
H         -2.84463        5.38546        0.36420
H         -1.63835        6.67900        0.45931
H         -1.35205        5.32468       -0.60323
H         -4.11687        4.86047        5.25867
H         -4.58530        6.06881        6.45580
H         -4.86389        6.42030        3.41701
H         -6.16709        6.09769        4.56323
H         -5.30184        7.63656        4.63770
H          0.44819        6.09091        1.60893

--Link1--
%chk=JID_4277.chk
%mem=8GB
%nprocshared=4
# B3LYP/6-311++G(d,p) empiricaldispersion=gd3bj scf=xqc pop=npa geom=check

CID_134987266_JID_4277_Energie_neutraal

0 1

--Link1--
%chk=JID_4277.chk
%mem=8GB
%nprocshared=4
# B3LYP/6-311++G(d,p) empiricaldispersion=gd3bj scf=xqc pop=npa geom=check

CID_134987266_JID_4277_Energie_kation

1 2

--Link1--
%chk=JID_4277.chk
%mem=8GB
%nprocshared=4
# B3LYP/6-311++G(d,p) empiricaldispersion=gd3bj scf=xqc pop=npa geom=check

CID_134987266_JID_4277_Energie_anion

-1 2
