%chk=JID_8232.chk
%mem=8GB
%nprocshared=4
# opt freq B3LYP/6-31G(d) empiricaldispersion=gd3bj scf=xqc

CID_102862590_JID_8232_neutraal

0 1
C          0.33400        1.00600       -0.17300
C          0.26115        0.44695        1.26140
C         -0.13251       -0.91855        0.62593
C         -0.68989       -0.07894       -0.55765
N         -1.14760       -1.63872        1.37627
C         -2.03450       -2.54125        0.59170
C         -1.34389       -3.83196        0.13372
C         -1.30554       -4.93387        1.18448
O         -2.62434       -5.23914        1.61746
C         -0.98392       -2.00922        2.73919
C         -2.08232       -2.30958        3.55110
C         -1.86944       -2.68361        4.87475
N         -0.64586       -2.75895        5.44628
C          0.39975       -2.44012        4.66252
C          0.28198       -2.06227        3.33319
C         -3.03337       -3.00736        5.74766
S         -3.10221       -4.30892        6.79644
N         -4.12262       -2.16801        5.67004
H          1.31331        0.87994       -0.64877
H          0.00453        2.04002       -0.29948
H          1.20591        0.46854        1.81099
H         -0.51739        0.91903        1.87323
H          0.72248       -1.55000        0.35458
H         -1.72842        0.25707       -0.44862
H         -0.55893       -0.51434       -1.55189
H         -2.97419       -2.75644        1.10990
H         -2.35451       -2.00617       -0.31031
H         -1.91586       -4.21466       -0.72171
H         -0.32923       -3.63107       -0.22599
H         -0.87235       -5.84131        0.75104
H         -0.69999       -4.65467        2.04934
H         -2.54313       -5.90538        2.32381
H         -3.09334       -2.26162        3.16564
H          1.37338       -2.50190        5.14078
H          1.18302       -1.84429        2.77205
H         -4.10431       -1.28992        5.16597
H         -4.89320       -2.32443        6.31001

--Link1--
%chk=JID_8232.chk
%mem=8GB
%nprocshared=4
# B3LYP/6-311++G(d,p) empiricaldispersion=gd3bj scf=xqc pop=npa geom=check

CID_102862590_JID_8232_Energie_neutraal

0 1

--Link1--
%chk=JID_8232.chk
%mem=8GB
%nprocshared=4
# B3LYP/6-311++G(d,p) empiricaldispersion=gd3bj scf=xqc pop=npa geom=check

CID_102862590_JID_8232_Energie_kation

1 2

--Link1--
%chk=JID_8232.chk
%mem=8GB
%nprocshared=4
# B3LYP/6-311++G(d,p) empiricaldispersion=gd3bj scf=xqc pop=npa geom=check

CID_102862590_JID_8232_Energie_anion

-1 2
