%chk=JID_9618.chk
%mem=8GB
%nprocshared=4
# opt freq B3LYP/6-31G(d) empiricaldispersion=gd3bj scf=xqc

CID_64188221_JID_9618_neutraal

0 1
C          0.94643        0.05184        0.06666
O          0.02554        0.89631       -0.61135
C          0.48051        2.08763       -1.10817
C         -0.45425        2.99778       -1.62976
C         -0.01236        4.23775       -2.12386
C          1.34266        4.59248       -2.13891
C          2.26260        3.67618       -1.62032
C          1.83761        2.44137       -1.11678
C          1.81422        5.93047       -2.65882
C          1.87075        6.17234       -4.16985
C          0.55168        6.29491       -4.94805
C          0.89477        5.57108       -6.25369
C          0.84833        4.06115       -6.04261
C          2.12890        3.81906       -5.24516
C          2.68346        5.23022       -5.06289
O          2.32406        5.79021       -6.36139
O          1.02046        6.96823       -2.07031
O         -1.81664        2.87117       -1.71995
C         -2.41045        1.61471       -1.43316
H          0.38738       -0.80284        0.45970
H          1.40682        0.56633        0.91662
H          1.70364       -0.33620       -0.62217
H         -0.75961        4.93875       -2.49246
H          3.32578        3.90990       -1.60334
H          2.60289        1.77249       -0.73570
H          2.82790        6.09629       -2.27116
H          2.33456        7.16787       -4.27538
H         -0.32330        5.86622       -4.45769
H          0.34029        7.35272       -5.14401
H          0.34799        5.92599       -7.12993
H         -0.05347        3.72861       -5.52028
H          0.90694        3.53219       -7.00038
H          1.96266        3.25890       -4.32815
H          2.81941        3.22934       -5.86099
H          3.76297        5.27536       -4.90014
H          0.76744        6.67402       -1.17788
H         -1.98946        0.81832       -2.05512
H         -2.34622        1.38344       -0.36561
H         -3.47398        1.68940       -1.68176

--Link1--
%chk=JID_9618.chk
%mem=8GB
%nprocshared=4
# B3LYP/6-311++G(d,p) empiricaldispersion=gd3bj scf=xqc pop=npa geom=check

CID_64188221_JID_9618_Energie_neutraal

0 1

--Link1--
%chk=JID_9618.chk
%mem=8GB
%nprocshared=4
# B3LYP/6-311++G(d,p) empiricaldispersion=gd3bj scf=xqc pop=npa geom=check

CID_64188221_JID_9618_Energie_kation

1 2

--Link1--
%chk=JID_9618.chk
%mem=8GB
%nprocshared=4
# B3LYP/6-311++G(d,p) empiricaldispersion=gd3bj scf=xqc pop=npa geom=check

CID_64188221_JID_9618_Energie_anion

-1 2
