%chk=JID_8293.chk
%mem=8GB
%nprocshared=4
# opt freq B3LYP/6-31G(d) empiricaldispersion=gd3bj scf=xqc

CID_79544603_JID_8293_neutraal

0 1
C          1.05689       -0.02026       -0.07971
C          0.31507        1.27943       -0.35224
N          1.07523        2.04877       -1.32281
C          0.40329        3.23842       -1.83430
C          0.41704        4.36131       -0.78963
C          1.11926        3.72577       -3.11584
C          1.06485        2.81743       -4.36387
C         -0.36258        2.66283       -4.91921
C         -0.32031        1.32414       -5.64421
C          0.57899        0.49086       -4.74770
N          1.54450        1.44186       -4.23881
C          2.78169        1.02039       -3.81426
O          3.11533       -0.15833       -3.77737
O          3.58844        2.05655       -3.47071
C          4.92403        1.82210       -2.95936
C          4.90069        1.01075       -1.65800
C          5.81919        1.17519       -4.02111
C          5.46779        3.22447       -2.64496
H          1.17621       -0.60908       -0.99591
H          0.49920       -0.62798        0.64014
H          2.05147        0.16822        0.33891
H         -0.68109        1.04148       -0.74136
H          0.19534        1.83120        0.58561
H          2.00050        2.27772       -0.96378
H         -0.63979        3.00796       -2.07361
H          1.43961        4.62342       -0.49508
H         -0.05776        5.26451       -1.18849
H         -0.13413        4.07816        0.11281
H          0.68230        4.69190       -3.40513
H          2.16577        3.94934       -2.87402
H          1.69140        3.27934       -5.13893
H         -1.11158        2.60895       -4.12323
H         -0.63890        3.48849       -5.58197
H         -1.30995        0.87971       -5.78026
H          0.14104        1.45111       -6.63087
H          0.02596        0.08622       -3.89254
H          1.06031       -0.33296       -5.28296
H          4.57106       -0.01964       -1.82008
H          5.89457        0.96665       -1.19944
H          4.20653        1.45240       -0.93510
H          5.75975        1.72518       -4.96694
H          6.86545        1.14947       -3.69788
H          5.51858        0.14572       -4.23756
H          5.46911        3.85270       -3.54328
H          4.82944        3.73387       -1.91322
H          6.48722        3.18644       -2.24694

--Link1--
%chk=JID_8293.chk
%mem=8GB
%nprocshared=4
# B3LYP/6-311++G(d,p) empiricaldispersion=gd3bj scf=xqc pop=npa geom=check

CID_79544603_JID_8293_Energie_neutraal

0 1

--Link1--
%chk=JID_8293.chk
%mem=8GB
%nprocshared=4
# B3LYP/6-311++G(d,p) empiricaldispersion=gd3bj scf=xqc pop=npa geom=check

CID_79544603_JID_8293_Energie_kation

1 2

--Link1--
%chk=JID_8293.chk
%mem=8GB
%nprocshared=4
# B3LYP/6-311++G(d,p) empiricaldispersion=gd3bj scf=xqc pop=npa geom=check

CID_79544603_JID_8293_Energie_anion

-1 2
