%chk=JID_5326.chk
%mem=8GB
%nprocshared=4
# opt freq B3LYP/6-31G(d) empiricaldispersion=gd3bj scf=xqc

CID_117134165_JID_5326_neutraal

0 1
C          0.90699       -0.03481       -0.01173
C          0.55044        0.72542       -1.25347
C         -0.14025        0.17031       -2.27473
C         -0.44506        0.93713       -3.43497
N         -1.09706        0.62966       -4.53607
C         -1.06393        1.76577       -5.32232
C         -0.39461        2.77995       -4.66269
N          0.00167        2.25103       -3.46199
C          0.70997        2.84403       -2.42189
C          0.99116        2.12008       -1.32509
C         -1.68755        1.80328       -6.67823
C         -2.96414        0.97382       -6.81165
C         -3.14505        0.69094       -8.29532
C         -1.81923        0.13589       -8.78456
S         -0.56119        1.14508       -7.95907
H          0.55203       -1.07026       -0.05176
H          0.45808        0.43608        0.86934
H          1.99344       -0.06225        0.12424
H         -0.47621       -0.86017       -2.24976
H         -0.16364        3.79611       -4.94656
H          1.00732        3.87729       -2.54407
H          1.54110        2.54764       -0.49273
H         -1.90470        2.84314       -6.95107
H         -2.89872        0.02454       -6.26430
H         -3.82556        1.51458       -6.40361
H         -3.95833       -0.02094       -8.46951
H         -3.39845        1.61432       -8.83164
H         -1.69259       -0.90794       -8.48050
H         -1.72508        0.19975       -9.87180

--Link1--
%chk=JID_5326.chk
%mem=8GB
%nprocshared=4
# B3LYP/6-311++G(d,p) empiricaldispersion=gd3bj scf=xqc pop=npa geom=check

CID_117134165_JID_5326_Energie_neutraal

0 1

--Link1--
%chk=JID_5326.chk
%mem=8GB
%nprocshared=4
# B3LYP/6-311++G(d,p) empiricaldispersion=gd3bj scf=xqc pop=npa geom=check

CID_117134165_JID_5326_Energie_kation

1 2

--Link1--
%chk=JID_5326.chk
%mem=8GB
%nprocshared=4
# B3LYP/6-311++G(d,p) empiricaldispersion=gd3bj scf=xqc pop=npa geom=check

CID_117134165_JID_5326_Energie_anion

-1 2
