%chk=JID_9883.chk
%mem=8GB
%nprocshared=4
# opt freq B3LYP/6-31G(d) empiricaldispersion=gd3bj scf=xqc

CID_72039338_JID_9883_neutraal

0 1
C         -0.80800        1.72300       -0.06700
C         -2.15139        1.08932       -0.50457
N         -2.08614       -0.11993       -1.35064
C         -1.24038       -1.18368       -0.76957
C          0.01718       -0.64172       -0.18221
C          0.22119        0.67480        0.16623
N          1.46456        0.96667        0.68583
C          2.17823       -0.13321        0.74441
S          1.40455       -1.55877        0.16208
N          3.44117       -0.16331        1.20002
C         -1.85609        0.11454       -2.77598
C         -0.48775        0.58132       -3.17455
C          0.40244       -0.17458       -3.83838
C          1.74778        0.28843       -4.20055
C          2.28354       -0.07657       -5.44156
C          3.57346        0.32101       -5.80272
C          4.34398        1.07649       -4.92088
C          3.82814        1.43005       -3.67588
C          2.53842        1.03321       -3.31479
H         -0.44884        2.41513       -0.83537
H         -0.96066        2.30640        0.84798
H         -2.78063        1.85457       -0.97592
H         -2.69430        0.80403        0.40762
H         -1.81340       -1.66427        0.03393
H         -1.03582       -1.97005       -1.50626
H          3.90015        0.73842        1.25167
H          4.03528       -0.91518        0.87438
H         -2.10439       -0.80822       -3.31739
H         -2.58604        0.84801       -3.14210
H         -0.23757        1.60789       -2.92498
H          0.15412       -1.19151       -4.13178
H          1.69717       -0.66626       -6.14222
H          3.97588        0.03963       -6.77225
H          5.34731        1.38552       -5.20171
H          4.42871        2.01121       -2.98119
H          2.16350        1.30258       -2.32946

--Link1--
%chk=JID_9883.chk
%mem=8GB
%nprocshared=4
# B3LYP/6-311++G(d,p) empiricaldispersion=gd3bj scf=xqc pop=npa geom=check

CID_72039338_JID_9883_Energie_neutraal

0 1

--Link1--
%chk=JID_9883.chk
%mem=8GB
%nprocshared=4
# B3LYP/6-311++G(d,p) empiricaldispersion=gd3bj scf=xqc pop=npa geom=check

CID_72039338_JID_9883_Energie_kation

1 2

--Link1--
%chk=JID_9883.chk
%mem=8GB
%nprocshared=4
# B3LYP/6-311++G(d,p) empiricaldispersion=gd3bj scf=xqc pop=npa geom=check

CID_72039338_JID_9883_Energie_anion

-1 2
