%chk=JID_3688.chk
%mem=8GB
%nprocshared=4
# opt freq B3LYP/6-31G(d) empiricaldispersion=gd3bj scf=xqc

CID_61225011_JID_3688_neutraal

0 1
C          1.02548        0.09431       -0.02138
C          2.08159        1.09151        0.41782
O          2.18659        2.17228       -0.52082
C          2.97828        1.94384       -1.60507
O          3.55496        0.89283       -1.85209
C          3.05839        3.17057       -2.46890
C          2.30807        3.01372       -3.79048
N          0.84905        3.08864       -3.79353
C          0.14691        1.84392       -3.49362
C         -1.24378        2.27498       -3.02797
C         -1.24161        3.79799       -3.14430
C          0.23447        4.14684       -3.00255
C         -2.12304        4.48533       -2.11537
H          0.06765        0.59657       -0.19077
H          0.88769       -0.68125        0.73742
H          1.30577       -0.38915       -0.96212
H          1.78985        1.53288        1.37658
H          3.05318        0.60746        0.56954
H          2.74222        4.05782       -1.91080
H          4.12432        3.33267       -2.67527
H          2.65635        3.82245       -4.44629
H          2.62343        2.08895       -4.29124
H          0.08267        1.21587       -4.38825
H          0.62792        1.25885       -2.70667
H         -1.40241        1.95699       -1.99054
H         -2.03567        1.83271       -3.64134
H         -1.58745        4.07765       -4.14923
H          0.53220        4.11139       -1.94864
H          0.45408        5.14084       -3.40460
H         -2.07355        5.57297       -2.23090
H         -3.16697        4.17768       -2.23416
H         -1.81323        4.24102       -1.09361

--Link1--
%chk=JID_3688.chk
%mem=8GB
%nprocshared=4
# B3LYP/6-311++G(d,p) empiricaldispersion=gd3bj scf=xqc pop=npa geom=check

CID_61225011_JID_3688_Energie_neutraal

0 1

--Link1--
%chk=JID_3688.chk
%mem=8GB
%nprocshared=4
# B3LYP/6-311++G(d,p) empiricaldispersion=gd3bj scf=xqc pop=npa geom=check

CID_61225011_JID_3688_Energie_kation

1 2

--Link1--
%chk=JID_3688.chk
%mem=8GB
%nprocshared=4
# B3LYP/6-311++G(d,p) empiricaldispersion=gd3bj scf=xqc pop=npa geom=check

CID_61225011_JID_3688_Energie_anion

-1 2
