%chk=JID_5873.chk
%mem=8GB
%nprocshared=4
# opt freq B3LYP/6-31G(d) empiricaldispersion=gd3bj scf=xqc

CID_64000277_JID_5873_neutraal

0 1
C          0.90494       -0.02202       -0.02189
C          1.45755        1.37365        0.25215
C          1.45014        2.34422       -0.95689
C          0.01446        2.82532       -1.25014
C         -0.24407        3.45600       -2.62104
N         -0.37592        2.52430       -3.75923
C          0.95969        2.04215       -4.14319
C          1.66724        1.12607       -3.12899
N          2.30525        1.85377       -2.03838
C         -1.40736        1.46295       -3.58196
C         -2.79711        2.10418       -3.39751
C         -1.46850        0.43857       -4.75329
C         -2.39206       -0.72340       -4.47497
C         -1.99874       -2.12152       -4.88305
C         -2.03665       -1.74985       -3.42794
H          1.55062       -0.57850       -0.70726
H         -0.10593        0.00586       -0.43590
H          0.86316       -0.59054        0.91333
H          0.88301        1.82317        1.07223
H          2.48449        1.27012        0.62661
H          1.97792        3.24009       -0.59986
H         -0.71560        2.03761       -1.05019
H         -0.21899        3.59509       -0.49971
H         -1.16024        4.05486       -2.55843
H          0.53400        4.20189       -2.83345
H          1.60540        2.90511       -4.36130
H          0.90449        1.53288       -5.11158
H          2.47210        0.62033       -3.67769
H          1.01592        0.32422       -2.77171
H          3.06442        1.29543       -1.64996
H         -1.19231        0.88158       -2.68005
H         -3.06302        2.72584       -4.25948
H         -3.57787        1.34764       -3.27509
H         -2.84723        2.72448       -2.49754
H         -1.78503        0.93770       -5.67699
H         -0.47597        0.01845       -4.94265
H         -3.43655       -0.45934       -4.59856
H         -2.77567       -2.77861       -5.25790
H         -1.02858       -2.28336       -5.33900
H         -1.09045       -1.66208       -2.90561
H         -2.83968       -2.15175       -2.82007

--Link1--
%chk=JID_5873.chk
%mem=8GB
%nprocshared=4
# B3LYP/6-311++G(d,p) empiricaldispersion=gd3bj scf=xqc pop=npa geom=check

CID_64000277_JID_5873_Energie_neutraal

0 1

--Link1--
%chk=JID_5873.chk
%mem=8GB
%nprocshared=4
# B3LYP/6-311++G(d,p) empiricaldispersion=gd3bj scf=xqc pop=npa geom=check

CID_64000277_JID_5873_Energie_kation

1 2

--Link1--
%chk=JID_5873.chk
%mem=8GB
%nprocshared=4
# B3LYP/6-311++G(d,p) empiricaldispersion=gd3bj scf=xqc pop=npa geom=check

CID_64000277_JID_5873_Energie_anion

-1 2
