%chk=JID_5620.chk
%mem=8GB
%nprocshared=4
# opt freq B3LYP/6-31G(d) empiricaldispersion=gd3bj scf=xqc

CID_116369088_JID_5620_neutraal

0 1
C          1.05861       -0.03818        0.07147
C          1.12977        0.79573       -1.21818
C          1.92077       -0.02574       -2.26115
C         -0.29314        1.01628       -1.75604
C          1.88185        2.14450       -1.02173
C          1.20172        3.27754       -0.23124
N          1.19708        3.04342        1.20148
C          0.54504        4.05471        2.06269
C          0.85940        5.53027        1.76717
C         -0.04144        6.17631        0.71659
C         -1.51749        5.94352        1.01015
C         -1.84354        4.46470        1.17863
C         -0.98329        3.81075        2.26418
O         -1.20418        2.38841        2.31981
C         -2.45602        2.02271        2.88249
H          0.76867       -1.07321       -0.14616
H          0.31101        0.34435        0.77062
H          2.02791       -0.06881        0.58047
H          1.44435       -0.99424       -2.45199
H          1.98352        0.50314       -3.21901
H          2.94313       -0.21958       -1.91720
H         -0.93376        1.50718       -1.01586
H         -0.28273        1.63587       -2.65955
H         -0.76977        0.06298       -2.01225
H          2.86984        1.94739       -0.58259
H          2.08809        2.55736       -2.02007
H          1.78529        4.18180       -0.43643
H          0.19681        3.44219       -0.62231
H          0.70553        2.16984        1.40369
H          0.99677        3.84448        3.04276
H          0.73937        6.09319        2.70313
H          1.91208        5.65186        1.48467
H          0.19379        5.80005       -0.28321
H          0.15588        7.25457        0.68869
H         -2.12363        6.36357        0.19942
H         -1.79537        6.48266        1.92442
H         -1.73359        3.93364        0.22755
H         -2.90470        4.37094        1.43677
H         -1.25330        4.24193        3.23834
H         -2.58620        2.47383        3.87060
H         -3.27912        2.30745        2.22235
H         -2.47292        0.93501        2.99408

--Link1--
%chk=JID_5620.chk
%mem=8GB
%nprocshared=4
# B3LYP/6-311++G(d,p) empiricaldispersion=gd3bj scf=xqc pop=npa geom=check

CID_116369088_JID_5620_Energie_neutraal

0 1

--Link1--
%chk=JID_5620.chk
%mem=8GB
%nprocshared=4
# B3LYP/6-311++G(d,p) empiricaldispersion=gd3bj scf=xqc pop=npa geom=check

CID_116369088_JID_5620_Energie_kation

1 2

--Link1--
%chk=JID_5620.chk
%mem=8GB
%nprocshared=4
# B3LYP/6-311++G(d,p) empiricaldispersion=gd3bj scf=xqc pop=npa geom=check

CID_116369088_JID_5620_Energie_anion

-1 2
