%chk=JID_6641.chk
%mem=8GB
%nprocshared=4
# opt freq B3LYP/6-31G(d) empiricaldispersion=gd3bj scf=xqc

CID_20662035_JID_6641_neutraal

0 1
C          0.98700       -0.07010        0.07012
C          0.10124       -0.09098        1.31102
C          0.42835        0.99473        2.35266
C          0.23328        2.46193        1.95703
C         -1.16380        3.03866        2.21746
C         -1.60052        3.11781        3.68800
C         -0.71995        4.00030        4.55215
C         -0.92051        5.32468        4.59941
N          0.24995        3.38387        5.30916
C         -1.39364       -0.30806        1.08759
O         -2.01698       -1.05948        1.84587
N         -2.11892        0.32593        0.13708
C         -1.73280        1.20096       -0.95927
C         -1.48234        0.48376       -2.27934
O         -1.07078        1.01155       -3.30116
O         -1.80160       -0.82531       -2.27359
H          1.01924        0.90087       -0.42578
H          0.65896       -0.81714       -0.65957
H          2.02049       -0.31189        0.34434
H          0.39572       -1.03397        1.80240
H         -0.11995        0.77765        3.27571
H          1.48966        0.87371        2.61147
H          0.96214        3.06419        2.51336
H          0.49201        2.61164        0.90502
H         -1.19628        4.04865        1.78806
H         -1.91427        2.46057        1.67321
H         -2.62738        3.50793        3.71485
H         -1.66980        2.11451        4.12444
H         -0.32070        5.96843        5.23346
H         -1.70197        5.79891        4.01451
H          0.58505        2.50163        4.93241
H          0.99843        3.99742        5.61912
H         -3.06809       -0.02876        0.10784
H         -2.57341        1.88456       -1.11479
H         -0.85339        1.77963       -0.68957
H         -1.60344       -1.13447       -3.18220

--Link1--
%chk=JID_6641.chk
%mem=8GB
%nprocshared=4
# B3LYP/6-311++G(d,p) empiricaldispersion=gd3bj scf=xqc pop=npa geom=check

CID_20662035_JID_6641_Energie_neutraal

0 1

--Link1--
%chk=JID_6641.chk
%mem=8GB
%nprocshared=4
# B3LYP/6-311++G(d,p) empiricaldispersion=gd3bj scf=xqc pop=npa geom=check

CID_20662035_JID_6641_Energie_kation

1 2

--Link1--
%chk=JID_6641.chk
%mem=8GB
%nprocshared=4
# B3LYP/6-311++G(d,p) empiricaldispersion=gd3bj scf=xqc pop=npa geom=check

CID_20662035_JID_6641_Energie_anion

-1 2
