%chk=JID_6190.chk
%mem=8GB
%nprocshared=4
# opt freq B3LYP/6-31G(d) empiricaldispersion=gd3bj scf=xqc

CID_83116522_JID_6190_neutraal

0 1
C          0.94941        0.05696        0.06478
N          0.14723       -0.02295       -1.14260
C         -1.27851        0.21039       -0.96933
C          0.78971        0.17761       -2.34367
O          1.94740        0.57919       -2.43974
N          0.10223       -0.09922       -3.48852
C         -0.54570       -1.39356       -3.69261
C         -1.38505       -1.42095       -4.97610
N         -0.55691       -0.99634       -6.12560
C         -1.06584       -1.52665       -7.34435
C         -1.91079       -0.75822       -8.15383
C         -2.47736       -1.31135       -9.30383
C         -2.22724       -2.64210       -9.63644
C         -1.39609       -3.42124       -8.83002
C         -0.77624       -2.86236       -7.71046
N         -0.01606       -3.67774       -6.84042
H          0.99627        1.09969        0.39327
H          1.96578       -0.30459       -0.11866
H          0.49106       -0.55850        0.84425
H         -1.80551        0.32874       -1.91840
H         -1.70571       -0.62697       -0.41051
H         -1.41554        1.13455       -0.39824
H          0.70794        0.12604       -4.26959
H          0.25628       -2.13963       -3.75164
H         -1.16486       -1.65927       -2.83214
H         -1.79067       -2.43215       -5.10048
H         -2.23368       -0.73237       -4.87856
H         -0.56583        0.02176       -6.18022
H         -2.14374        0.26924       -7.89104
H         -3.13091       -0.70956       -9.93003
H         -2.68995       -3.07879      -10.51765
H         -1.23291       -4.46509       -9.08142
H          0.51989       -4.37988       -7.33845
H          0.57703       -3.06634       -6.27656

--Link1--
%chk=JID_6190.chk
%mem=8GB
%nprocshared=4
# B3LYP/6-311++G(d,p) empiricaldispersion=gd3bj scf=xqc pop=npa geom=check

CID_83116522_JID_6190_Energie_neutraal

0 1

--Link1--
%chk=JID_6190.chk
%mem=8GB
%nprocshared=4
# B3LYP/6-311++G(d,p) empiricaldispersion=gd3bj scf=xqc pop=npa geom=check

CID_83116522_JID_6190_Energie_kation

1 2

--Link1--
%chk=JID_6190.chk
%mem=8GB
%nprocshared=4
# B3LYP/6-311++G(d,p) empiricaldispersion=gd3bj scf=xqc pop=npa geom=check

CID_83116522_JID_6190_Energie_anion

-1 2
