%chk=JID_8318.chk
%mem=8GB
%nprocshared=4
# opt freq B3LYP/6-31G(d) empiricaldispersion=gd3bj scf=xqc

CID_63302814_JID_8318_neutraal

0 1
C          0.92706        0.03221       -0.06036
C         -0.13929       -0.68803       -0.90008
C         -0.23900       -2.14092       -0.42236
C         -1.46835        0.05947       -0.74555
O          0.35606       -0.61718       -2.26078
C         -0.34987       -1.15337       -3.28825
O         -1.43196       -1.71509       -3.18856
N          0.30960       -0.99497       -4.46205
C         -0.04640       -1.36539       -5.81472
C          1.45109       -1.16249       -6.14761
C          1.56654       -0.37526       -4.82100
N          1.64304       -0.23135       -7.27439
C          1.78075       -0.97833       -8.53900
C          0.46388       -1.48685       -9.06536
N         -0.64646       -0.77395       -9.09349
C         -1.67269       -1.53333       -9.61927
C         -1.33480       -2.81705       -9.98702
S          0.32618       -3.09180       -9.66913
H          0.66893        0.04267        1.00381
H          1.05312        1.06817       -0.39628
H          1.90476       -0.45047       -0.17474
H         -0.45480       -2.19410        0.65017
H         -1.02976       -2.68920       -0.94319
H          0.69578       -2.67880       -0.61684
H         -1.40204        1.06415       -1.17786
H         -2.28788       -0.45063       -1.26043
H         -1.75292        0.15155        0.30826
H         -0.40447       -2.39340       -5.91319
H         -0.76874       -0.66873       -6.25050
H          2.05668       -2.07671       -6.16163
H          1.49117        0.71580       -4.86909
H          2.40653       -0.66821       -4.18570
H          0.87479        0.43367       -7.40398
H          2.18899       -0.28782       -9.28680
H          2.51917       -1.78190       -8.43139
H         -2.66017       -1.09743       -9.71268
H         -1.96584       -3.58282      -10.41440

--Link1--
%chk=JID_8318.chk
%mem=8GB
%nprocshared=4
# B3LYP/6-311++G(d,p) empiricaldispersion=gd3bj scf=xqc pop=npa geom=check

CID_63302814_JID_8318_Energie_neutraal

0 1

--Link1--
%chk=JID_8318.chk
%mem=8GB
%nprocshared=4
# B3LYP/6-311++G(d,p) empiricaldispersion=gd3bj scf=xqc pop=npa geom=check

CID_63302814_JID_8318_Energie_kation

1 2

--Link1--
%chk=JID_8318.chk
%mem=8GB
%nprocshared=4
# B3LYP/6-311++G(d,p) empiricaldispersion=gd3bj scf=xqc pop=npa geom=check

CID_63302814_JID_8318_Energie_anion

-1 2
