%chk=JID_10351.chk
%mem=8GB
%nprocshared=4
# opt freq B3LYP/6-31G(d) empiricaldispersion=gd3bj scf=xqc

CID_63077291_JID_10351_neutraal

0 1
C          2.49200        0.00400       -0.01400
C          1.05128       -0.21621        0.37566
C          0.43920       -1.47527        0.17868
C         -0.90625       -1.64604        0.56192
C         -1.65346       -0.60442        1.11555
C         -1.05961        0.63245        1.32176
C          0.28386        0.80990        0.96694
N          0.86969        2.11171        1.25416
O          0.28597        3.10538        0.79898
O          1.88412        2.13812        1.96453
N          1.18874       -2.53438       -0.34754
C          1.78336       -3.39677        0.68106
C          2.17900       -4.64276       -0.09328
C          1.02776       -4.80499       -1.07235
C          0.59690       -3.36712       -1.43104
C          1.06909       -2.83713       -2.82140
C          0.55845       -3.66877       -4.00357
C          1.78063       -3.88677       -4.88129
C          2.93674       -3.80680       -3.90662
N          2.52917       -2.73546       -3.01254
H          3.14263       -0.15756        0.85097
H          2.80912       -0.66771       -0.81651
H          2.64849        1.01575       -0.40212
H         -1.38682       -2.61506        0.45097
H         -2.69064       -0.76857        1.39679
H         -1.63436        1.44256        1.76523
H          1.05544       -3.65748        1.46011
H          2.65346       -2.92661        1.15083
H          3.11936       -4.47965       -0.63111
H          2.30588       -5.51414        0.55535
H          1.29933       -5.42768       -1.92722
H          0.19588       -5.30654       -0.56087
H         -0.49950       -3.33984       -1.43253
H          0.67891       -1.81606       -2.92432
H          0.15006       -4.63407       -3.68752
H         -0.22901       -3.14582       -4.55686
H          1.74397       -4.84314       -5.41109
H          1.85233       -3.08583       -5.62758
H          3.05681       -4.74868       -3.36118
H          3.88022       -3.57569       -4.40877
H          2.99938       -2.76047       -2.10876

--Link1--
%chk=JID_10351.chk
%mem=8GB
%nprocshared=4
# B3LYP/6-311++G(d,p) empiricaldispersion=gd3bj scf=xqc pop=npa geom=check

CID_63077291_JID_10351_Energie_neutraal

0 1

--Link1--
%chk=JID_10351.chk
%mem=8GB
%nprocshared=4
# B3LYP/6-311++G(d,p) empiricaldispersion=gd3bj scf=xqc pop=npa geom=check

CID_63077291_JID_10351_Energie_kation

1 2

--Link1--
%chk=JID_10351.chk
%mem=8GB
%nprocshared=4
# B3LYP/6-311++G(d,p) empiricaldispersion=gd3bj scf=xqc pop=npa geom=check

CID_63077291_JID_10351_Energie_anion

-1 2
