%chk=JID_3534.chk
%mem=8GB
%nprocshared=4
# opt freq B3LYP/6-31G(d) empiricaldispersion=gd3bj scf=xqc

CID_141648636_JID_3534_neutraal

0 1
C          1.02158        0.09648       -0.01505
C          0.79184        0.26737        1.45691
C          0.27397        1.38923        1.98352
C          1.26141       -0.87123        2.31134
O          2.20809       -1.56750        1.95407
C          0.58129       -1.17645        3.59484
C          1.36132       -1.60674        4.67378
C          0.75851       -1.92494        5.89284
C         -0.63090       -1.82284        6.04435
C         -1.41063       -1.42610        4.94834
C         -0.80978       -1.10631        3.72783
C         -1.28830       -2.19900        7.34570
O         -1.73429       -3.54704        7.30913
H          0.63470        0.94496       -0.58953
H          0.51603       -0.80500       -0.37686
H          2.09096        0.00858       -0.23298
H          0.16263        1.53950        3.05276
H         -0.02888        2.21609        1.34749
H          2.44052       -1.69786        4.56443
H          1.38071       -2.25974        6.72089
H         -2.49454       -1.37568        5.03948
H         -1.43765       -0.82309        2.88697
H         -0.59037       -2.08647        8.18205
H         -2.14680       -1.55007        7.54829
H         -1.33416       -3.97398        6.53210

--Link1--
%chk=JID_3534.chk
%mem=8GB
%nprocshared=4
# B3LYP/6-311++G(d,p) empiricaldispersion=gd3bj scf=xqc pop=npa geom=check

CID_141648636_JID_3534_Energie_neutraal

0 1

--Link1--
%chk=JID_3534.chk
%mem=8GB
%nprocshared=4
# B3LYP/6-311++G(d,p) empiricaldispersion=gd3bj scf=xqc pop=npa geom=check

CID_141648636_JID_3534_Energie_kation

1 2

--Link1--
%chk=JID_3534.chk
%mem=8GB
%nprocshared=4
# B3LYP/6-311++G(d,p) empiricaldispersion=gd3bj scf=xqc pop=npa geom=check

CID_141648636_JID_3534_Energie_anion

-1 2
