%chk=JID_10490.chk
%mem=8GB
%nprocshared=4
# opt freq B3LYP/6-31G(d) empiricaldispersion=gd3bj scf=xqc

CID_102660600_JID_10490_neutraal

0 1
C          1.07877       -0.00274        0.06154
C          0.53739       -1.36890       -0.35146
C          1.01224       -2.45777        0.55929
N          0.98084       -3.75618        0.22946
O          1.49938       -4.38781        1.36259
C          1.77578       -3.40055        2.26510
N          1.48175       -2.20047        1.82276
C          2.37245       -3.77746        3.58524
C          1.65365       -2.98993        4.70984
C          2.26799       -3.31427        6.07727
C          3.75518       -2.93018        6.06738
C          4.50911       -3.72030        4.97462
C          3.87447       -3.40070        3.60143
C          4.34877       -5.23178        5.25544
C          2.85576       -5.63421        5.26211
C          2.12612       -4.81790        6.35124
C          2.24208       -5.28951        3.88512
C          2.71294       -7.13314        5.54217
C          5.99179       -3.33499        4.97433
O         -0.89471       -1.27488       -0.38969
H          0.70334        0.29337        1.04811
H          0.74227        0.76705       -0.64180
H          2.17332        0.00623        0.08907
H          0.87152       -1.58417       -1.37285
H          1.72375       -1.90847        4.52913
H          0.58182       -3.23038        4.71679
H          1.74709       -2.74700        6.85682
H          4.19373       -3.13123        7.05315
H          3.85603       -1.85101        5.89271
H          4.40612       -3.94293        2.80662
H          3.99924       -2.33231        3.37462
H          4.88919       -5.81214        4.49552
H          4.80676       -5.48201        6.22190
H          2.53677       -5.05189        7.34168
H          1.06257       -5.08827        6.37936
H          1.18473       -5.58807        3.86112
H          2.74430       -5.87610        3.10294
H          3.23067       -7.72836        4.78196
H          3.13700       -7.39484        6.51777
H          1.65999       -7.43588        5.54338
H          6.45642       -3.55142        5.94262
H          6.54440       -3.88862        4.20731
H          6.12229       -2.26580        4.77343
H         -1.19821       -1.32483        0.53361

--Link1--
%chk=JID_10490.chk
%mem=8GB
%nprocshared=4
# B3LYP/6-311++G(d,p) empiricaldispersion=gd3bj scf=xqc pop=npa geom=check

CID_102660600_JID_10490_Energie_neutraal

0 1

--Link1--
%chk=JID_10490.chk
%mem=8GB
%nprocshared=4
# B3LYP/6-311++G(d,p) empiricaldispersion=gd3bj scf=xqc pop=npa geom=check

CID_102660600_JID_10490_Energie_kation

1 2

--Link1--
%chk=JID_10490.chk
%mem=8GB
%nprocshared=4
# B3LYP/6-311++G(d,p) empiricaldispersion=gd3bj scf=xqc pop=npa geom=check

CID_102660600_JID_10490_Energie_anion

-1 2
