%chk=JID_7437.chk
%mem=8GB
%nprocshared=4
# opt freq B3LYP/6-31G(d) empiricaldispersion=gd3bj scf=xqc

CID_54942781_JID_7437_neutraal

0 1
C         -2.58300       -0.40300       -0.01200
C         -2.25053        0.67439       -0.81858
C         -0.97795        0.76857       -1.38389
C         -0.03681       -0.24874       -1.12793
C         -0.34698       -1.35592       -0.33086
C         -1.64658       -1.40991        0.23932
C          0.77321       -2.27217       -0.23780
C          1.88589       -1.78180       -0.89356
S          1.58288       -0.31751       -1.70409
C          0.83004       -3.51633        0.51748
O          1.69249       -3.69256        1.37893
N         -0.09826       -4.51024        0.31048
C         -0.95121       -4.74975       -0.74932
C         -1.05960       -4.12307       -1.96634
N         -2.05534       -4.76615       -2.64728
N         -2.58683       -5.79506       -1.96878
C         -1.90889       -5.79029       -0.81897
H         -3.57436       -0.46642        0.43041
H         -2.98198        1.45679       -1.00737
H         -0.71577        1.61991       -2.00610
H         -1.92898       -2.24491        0.87638
H          2.86731       -2.23533       -0.94488
H         -0.04566       -5.23607        1.01473
H         -0.53808       -3.30044       -2.43112
H         -2.41061       -4.56450       -3.57657
H         -2.14460       -6.54068       -0.07542

--Link1--
%chk=JID_7437.chk
%mem=8GB
%nprocshared=4
# B3LYP/6-311++G(d,p) empiricaldispersion=gd3bj scf=xqc pop=npa geom=check

CID_54942781_JID_7437_Energie_neutraal

0 1

--Link1--
%chk=JID_7437.chk
%mem=8GB
%nprocshared=4
# B3LYP/6-311++G(d,p) empiricaldispersion=gd3bj scf=xqc pop=npa geom=check

CID_54942781_JID_7437_Energie_kation

1 2

--Link1--
%chk=JID_7437.chk
%mem=8GB
%nprocshared=4
# B3LYP/6-311++G(d,p) empiricaldispersion=gd3bj scf=xqc pop=npa geom=check

CID_54942781_JID_7437_Energie_anion

-1 2
