%chk=JID_10766.chk
%mem=8GB
%nprocshared=4
# opt freq B3LYP/6-31G(d) empiricaldispersion=gd3bj scf=xqc

CID_105205722_JID_10766_neutraal

0 1
C          2.54100        1.06400        0.00800
C          1.35864        0.15224        0.22670
C          0.06919        0.64613        0.57051
C         -0.96648       -0.28289        0.83971
C         -0.71692       -1.66025        0.70159
C          0.53930       -2.13106        0.33954
C          1.57222       -1.23116        0.11405
C         -2.35472        0.12320        1.25417
C         -0.16361        2.15335        0.63814
C         -0.36094        2.82192       -0.75108
C         -1.82030        2.77109       -1.27414
C         -2.94104        3.35702       -0.39811
C         -2.91718        4.84751       -0.17500
C         -2.77824        5.36846        1.11956
C         -2.74781        6.74812        1.32913
C         -2.86395        7.62083        0.24927
C         -3.01271        7.11481       -1.04013
C         -3.04167        5.73553       -1.25168
N          0.19494        4.19633       -0.69231
N          0.45362        4.68275       -2.03167
H          2.34851        1.77361       -0.80025
H          2.77728        1.60616        0.92887
H          3.43666        0.49874       -0.27266
H         -1.50976       -2.38284        0.88534
H          0.71544       -3.19887        0.24476
H          2.55451       -1.61716       -0.14984
H         -2.32900        0.88359        2.03934
H         -2.91657        0.48774        0.39147
H         -2.90856       -0.72535        1.67197
H         -0.98004        2.40279        1.31992
H          0.71246        2.58817        1.13861
H          0.24143        2.25963       -1.47750
H         -1.86076        3.23861       -2.26654
H         -2.06591        1.71628       -1.45360
H         -3.90258        3.11900       -0.87349
H         -2.97408        2.84416        0.56740
H         -2.68738        4.70314        1.97542
H         -2.63513        7.14213        2.33575
H         -2.84128        8.69493        0.41256
H         -3.10526        7.79352       -1.88393
H         -3.15254        5.35682       -2.26534
H         -0.46729        4.80575       -0.19961
H          0.75684        5.66082       -2.00418
H          1.23852        4.17704       -2.45284

--Link1--
%chk=JID_10766.chk
%mem=8GB
%nprocshared=4
# B3LYP/6-311++G(d,p) empiricaldispersion=gd3bj scf=xqc pop=npa geom=check

CID_105205722_JID_10766_Energie_neutraal

0 1

--Link1--
%chk=JID_10766.chk
%mem=8GB
%nprocshared=4
# B3LYP/6-311++G(d,p) empiricaldispersion=gd3bj scf=xqc pop=npa geom=check

CID_105205722_JID_10766_Energie_kation

1 2

--Link1--
%chk=JID_10766.chk
%mem=8GB
%nprocshared=4
# B3LYP/6-311++G(d,p) empiricaldispersion=gd3bj scf=xqc pop=npa geom=check

CID_105205722_JID_10766_Energie_anion

-1 2
