%chk=JID_8252.chk
%mem=8GB
%nprocshared=4
# opt freq B3LYP/6-31G(d) empiricaldispersion=gd3bj scf=xqc

CID_84158956_JID_8252_neutraal

0 1
C          1.06286        0.03798       -0.06787
N          0.07943       -0.67687       -0.90018
C         -1.07910        0.04792       -1.17091
O         -1.28638        1.14818       -0.63234
C         -2.16085       -0.42219       -2.13277
N         -1.91849       -1.57777       -2.95408
C         -1.88233       -2.71117       -2.14597
O         -2.84014       -3.45882       -1.98062
C         -0.51954       -3.04194       -1.67597
C         -0.12682       -4.40673       -1.83657
C          1.19150       -4.77893       -1.57095
C          2.12349       -3.82400       -1.20767
C          1.72741       -2.49519       -1.04347
C          0.39498       -2.05563       -1.24080
N         -1.04334       -5.44945       -2.07998
C         -2.80954       -1.67868       -4.10539
C         -2.18931       -2.60174       -5.11575
C         -2.71731       -3.77361       -5.49518
H          1.35441       -0.58384        0.78539
H          0.68017        0.97398        0.34817
H          1.93075        0.29447       -0.68420
H         -3.07567       -0.58251       -1.54645
H         -2.33072        0.43025       -2.80349
H          1.49347       -5.82053       -1.64439
H          3.15534       -4.11239       -1.02311
H          2.51831       -1.80965       -0.75103
H         -1.97110       -5.11736       -2.36290
H         -0.69485       -6.20952       -2.65167
H         -3.80528       -2.01202       -3.79006
H         -2.90899       -0.69379       -4.57602
H         -1.25376       -2.27440       -5.56313
H         -2.22110       -4.39563       -6.23345
H         -3.64517       -4.14292       -5.06695

--Link1--
%chk=JID_8252.chk
%mem=8GB
%nprocshared=4
# B3LYP/6-311++G(d,p) empiricaldispersion=gd3bj scf=xqc pop=npa geom=check

CID_84158956_JID_8252_Energie_neutraal

0 1

--Link1--
%chk=JID_8252.chk
%mem=8GB
%nprocshared=4
# B3LYP/6-311++G(d,p) empiricaldispersion=gd3bj scf=xqc pop=npa geom=check

CID_84158956_JID_8252_Energie_kation

1 2

--Link1--
%chk=JID_8252.chk
%mem=8GB
%nprocshared=4
# B3LYP/6-311++G(d,p) empiricaldispersion=gd3bj scf=xqc pop=npa geom=check

CID_84158956_JID_8252_Energie_anion

-1 2
