%chk=JID_9111.chk
%mem=8GB
%nprocshared=4
# opt freq B3LYP/6-31G(d) empiricaldispersion=gd3bj scf=xqc

CID_152217652_JID_9111_neutraal

0 1
C         -2.43700        0.65500       -0.39000
C         -1.21521        1.45004        0.05750
C          0.05779        0.64734       -0.02029
C          0.05050       -0.76206       -0.04876
C          1.28226       -1.43330       -0.17379
C          2.49006       -0.73025       -0.19490
C          2.51118        0.66680       -0.10780
C          1.28246        1.34002       -0.02853
C          3.82204        1.43079       -0.10538
O          3.75487        2.69853       -0.02264
O          4.89259        0.74763       -0.17875
C         -1.25305       -1.54908        0.01511
C         -2.48392       -0.67800        0.34892
C         -1.21436       -2.75515        0.96096
N         -1.50800       -3.98769        0.57213
C         -1.36695       -4.85711        1.63517
C         -0.98841       -4.28505        2.82882
S         -0.79854       -2.59562        2.62903
O         -1.47741       -2.07408       -1.31376
H         -2.40474        0.48516       -1.47331
H         -3.34593        1.23088       -0.18231
H         -1.13226        2.34539       -0.57023
H         -1.35018        1.78266        1.09422
H          1.31696       -2.51732       -0.25273
H          3.43253       -1.26948       -0.27759
H          1.29563        2.42915        0.02200
H         -2.54536       -0.47110        1.42514
H         -3.40635       -1.20522        0.07274
H         -1.55440       -5.91296        1.48350
H         -0.81646       -4.76343        3.78168
H         -1.58875       -3.03783       -1.19749

--Link1--
%chk=JID_9111.chk
%mem=8GB
%nprocshared=4
# B3LYP/6-311++G(d,p) empiricaldispersion=gd3bj scf=xqc pop=npa geom=check

CID_152217652_JID_9111_Energie_neutraal

0 1

--Link1--
%chk=JID_9111.chk
%mem=8GB
%nprocshared=4
# B3LYP/6-311++G(d,p) empiricaldispersion=gd3bj scf=xqc pop=npa geom=check

CID_152217652_JID_9111_Energie_kation

1 2

--Link1--
%chk=JID_9111.chk
%mem=8GB
%nprocshared=4
# B3LYP/6-311++G(d,p) empiricaldispersion=gd3bj scf=xqc pop=npa geom=check

CID_152217652_JID_9111_Energie_anion

-1 2
