%chk=JID_8958.chk
%mem=8GB
%nprocshared=4
# opt=(cartesian,calcfc) freq B3LYP/6-31G(d) empiricaldispersion=gd3bj scf=xqc

CID_79680630_JID_8958_neutraal

0 1
6	-2.221131	 -1.723311	 -0.953359
6	-1.573678	 -0.651330	 -1.835836
8	-2.157077	 0.633352	 -1.567014
6	-1.977220	 0.991062	 -0.205200
6	-2.705087	 -0.027734	 0.707245
7	-2.249388	 -1.387364	 0.473570
6	-1.161276	 -1.857807	 1.327056
6	0.099953	 -1.048857	 1.323183
6	0.638729	 -0.144889	 2.198410
6	1.795746	 0.396703	 1.560988
6	1.889645	 -0.205727	 0.328717
8	0.855023	 -1.094809	 0.194707
6	2.727555	 -0.114741	 -0.891491
8	2.357358	 -0.616996	 -1.947300
7	3.933829	 0.532922	 -0.804123
7	4.516775	 1.177689	 0.292330
6	-2.513661	 2.343260	 -0.002266
7	-2.943180	 3.395312	 0.231280
1	-1.709422	 -2.682006	 -1.084316
1	-3.263003	 -1.850974	 -1.279290
1	-0.487271	 -0.607766	 -1.696942
1	-1.783464	 -0.848136	 -2.890531
1	-0.905542	 1.013931	 0.043724
1	-3.775672	 0.037843	 0.474242
1	-2.567328	 0.235202	 1.760656
1	-1.526755	 -1.882815	 2.361031
1	-0.938052	 -2.890388	 1.037050
1	0.252184	 0.111173	 3.174911
1	2.448518	 1.150381	 1.971622
1	4.460468	 0.575118	 -1.667009
1	3.941126	 1.964702	 0.582735
1	4.608088	 0.531677	 1.072885

--Link1--
%chk=JID_8958.chk
%mem=8GB
%nprocshared=4
# B3LYP/6-311++G(d,p) empiricaldispersion=gd3bj scf=xqc pop=npa geom=check

CID_79680630_JID_8958_Energie_neutraal

0 1

--Link1--
%chk=JID_8958.chk
%mem=8GB
%nprocshared=4
# B3LYP/6-311++G(d,p) empiricaldispersion=gd3bj scf=xqc pop=npa geom=check

CID_79680630_JID_8958_Energie_kation

1 2

--Link1--
%chk=JID_8958.chk
%mem=8GB
%nprocshared=4
# B3LYP/6-311++G(d,p) empiricaldispersion=gd3bj scf=xqc pop=npa geom=check

CID_79680630_JID_8958_Energie_anion

-1 2
