%chk=JID_5251.chk
%mem=8GB
%nprocshared=4
# opt freq B3LYP/6-31G(d) empiricaldispersion=gd3bj scf=xqc

CID_144023950_JID_5251_neutraal

0 1
C          1.01512       -0.07899       -0.05943
C          1.73161       -0.82927       -1.15908
C          2.43333        4.30508        2.22280
C          1.19857        3.46207        2.15196
C          0.09035        3.70117        1.42687
C         -1.10295        2.78627        1.47130
C         -0.05937        4.85861        0.56335
C          0.16111        4.91857       -0.76351
C          0.65400        3.80806       -1.59061
C          1.92293        3.38245       -1.44695
C         -0.19638        3.13889       -2.57101
C         -1.38019        3.61044       -2.99419
C         -2.02967        4.89771       -2.57795
C         -1.07586        6.04903       -2.30274
N         -0.09053        6.07922       -1.45394
H          0.66948       -0.76919        0.71580
H          0.14622        0.45018       -0.46078
H          1.68272        0.65267        0.40462
H          2.60159       -1.35872       -0.75937
H          1.06443       -1.56277       -1.62148
H          2.07499       -0.13921       -1.93541
H          2.37516        5.21136        1.61423
H          3.29670        3.72379        1.88449
H          2.61190        4.60845        3.25917
H          1.22919        2.56947        2.77466
H         -1.98539        3.32471        1.83402
H         -1.32760        2.38579        0.47731
H         -0.94003        1.93327        2.13900
H         -0.44091        5.74875        1.05950
H          2.59665        3.85821       -0.74165
H          2.33187        2.56844       -2.03477
H          0.15761        2.18911       -2.96681
H         -1.94201        3.00784       -3.70496
H         -2.67815        5.23162       -3.39722
H         -2.67285        4.74223       -1.70544
H         -1.27605        6.97812       -2.86396

--Link1--
%chk=JID_5251.chk
%mem=8GB
%nprocshared=4
# B3LYP/6-311++G(d,p) empiricaldispersion=gd3bj scf=xqc pop=npa geom=check

CID_144023950_JID_5251_Energie_neutraal

0 1

--Link1--
%chk=JID_5251.chk
%mem=8GB
%nprocshared=4
# B3LYP/6-311++G(d,p) empiricaldispersion=gd3bj scf=xqc pop=npa geom=check

CID_144023950_JID_5251_Energie_kation

1 2

--Link1--
%chk=JID_5251.chk
%mem=8GB
%nprocshared=4
# B3LYP/6-311++G(d,p) empiricaldispersion=gd3bj scf=xqc pop=npa geom=check

CID_144023950_JID_5251_Energie_anion

-1 2
