%chk=JID_4338.chk
%mem=8GB
%nprocshared=4
# opt freq B3LYP/6-31G(d) empiricaldispersion=gd3bj scf=xqc

CID_130655118_JID_4338_neutraal

0 1
C          0.97980        0.06818        0.07031
C          0.19363        0.00565       -1.25119
C          0.42659       -1.35807       -1.93159
C         -1.33430        0.12110       -0.99054
C         -2.05907       -0.84350        0.00087
C         -3.04275        0.30961        0.28692
C         -1.91432        1.27981       -0.11890
C          0.61231        1.13806       -2.17249
N         -0.19131        2.05606       -2.68725
N          0.55317        2.92289       -3.45208
C          1.80554        2.54316       -3.38764
N          1.88919        1.39426       -2.62525
N          3.07768        0.60992       -2.42773
N          2.88532        3.13162       -3.95569
H          0.64065       -0.68718        0.78526
H          0.88752        1.04796        0.55135
H          2.04926       -0.11050       -0.08135
H          0.04672       -2.17930       -1.31304
H         -0.08789       -1.41280       -2.89850
H          1.48690       -1.55835       -2.11113
H         -1.85361        0.08576       -1.96577
H         -2.50170       -1.73641       -0.44907
H         -1.48439       -1.14431        0.88212
H         -3.39319        0.39179        1.31864
H         -3.90686        0.33055       -0.38711
H         -1.29314        1.59251        0.72653
H         -2.23819        2.16999       -0.66464
H          3.89557        1.14198       -2.71636
H          3.06238       -0.18363       -3.06786
H          2.67414        4.03888       -4.36725
H          3.73547        3.17946       -3.40496

--Link1--
%chk=JID_4338.chk
%mem=8GB
%nprocshared=4
# B3LYP/6-311++G(d,p) empiricaldispersion=gd3bj scf=xqc pop=npa geom=check

CID_130655118_JID_4338_Energie_neutraal

0 1

--Link1--
%chk=JID_4338.chk
%mem=8GB
%nprocshared=4
# B3LYP/6-311++G(d,p) empiricaldispersion=gd3bj scf=xqc pop=npa geom=check

CID_130655118_JID_4338_Energie_kation

1 2

--Link1--
%chk=JID_4338.chk
%mem=8GB
%nprocshared=4
# B3LYP/6-311++G(d,p) empiricaldispersion=gd3bj scf=xqc pop=npa geom=check

CID_130655118_JID_4338_Energie_anion

-1 2
