%chk=JID_1258.chk
%mem=8GB
%nprocshared=4
# opt freq B3LYP/6-31G(d) empiricaldispersion=gd3bj scf=xqc

CID_115015652_JID_1258_neutraal

0 1
C          0.78100       -1.26600       -0.21900
C          1.60472       -0.06221        0.23210
C          0.92257        1.25487       -0.16530
C         -0.54330        1.22856        0.28601
O         -1.22157        0.09039       -0.24013
C         -0.66543       -1.13505        0.23104
C          1.60743        2.49304        0.41662
S          3.22335        2.85073       -0.25923
O          3.30054        2.43642       -1.64076
O          3.63773        4.16476        0.17394
O          4.08590        1.77376        0.57780
H          0.81239       -1.31780       -1.31440
H          1.21860       -2.19214        0.16816
H          1.73517       -0.10131        1.32083
H          2.60013       -0.13522       -0.21705
H          0.93117        1.31098       -1.26190
H         -0.63027        1.22903        1.37970
H         -1.06721        2.11685       -0.08329
H         -1.26139       -1.95464       -0.18265
H         -0.75079       -1.18071        1.32307
H          1.00812        3.38366        0.19113
H          1.70902        2.43715        1.50582
H          4.67749        1.30796       -0.05237

--Link1--
%chk=JID_1258.chk
%mem=8GB
%nprocshared=4
# B3LYP/6-311++G(d,p) empiricaldispersion=gd3bj scf=xqc pop=npa geom=check

CID_115015652_JID_1258_Energie_neutraal

0 1

--Link1--
%chk=JID_1258.chk
%mem=8GB
%nprocshared=4
# B3LYP/6-311++G(d,p) empiricaldispersion=gd3bj scf=xqc pop=npa geom=check

CID_115015652_JID_1258_Energie_kation

1 2

--Link1--
%chk=JID_1258.chk
%mem=8GB
%nprocshared=4
# B3LYP/6-311++G(d,p) empiricaldispersion=gd3bj scf=xqc pop=npa geom=check

CID_115015652_JID_1258_Energie_anion

-1 2
