%chk=JID_6949.chk
%mem=8GB
%nprocshared=4
# opt freq B3LYP/6-31G(d) empiricaldispersion=gd3bj scf=xqc

CID_79224920_JID_6949_neutraal

0 1
C          0.97481       -0.06615        0.07063
C          0.38369        1.32041        0.27784
C          0.90389        2.36737       -0.71176
N          0.50696        2.04702       -2.07967
C          0.75092        3.13494       -3.02631
C          2.21912        3.51907       -3.25229
C          3.12430        2.39526       -3.76664
C          2.69457        1.80056       -5.06997
C          2.27808        0.50127       -5.32381
N          1.98106        0.45992       -6.66358
N          2.19842        1.62468       -7.29539
C          2.64357        2.44409       -6.33965
C          2.99490        3.84428       -6.68448
C          1.47981       -0.66231       -7.43674
C          2.59124       -1.39931       -8.16304
C          2.13632       -0.67817       -4.43155
H          0.67069       -0.49491       -0.88902
H          0.63083       -0.74259        0.85968
H          2.06848       -0.03512        0.10426
H         -0.70997        1.26058        0.21913
H          0.62563        1.65414        1.29417
H          0.48943        3.33989       -0.42040
H          1.99470        2.43185       -0.62958
H          0.97664        1.20216       -2.39931
H          0.29982        2.85126       -3.98419
H          0.19889        4.02533       -2.70024
H          2.24185        4.35792       -3.95836
H          2.64567        3.91012       -2.32044
H          4.13843        2.79659       -3.89187
H          3.21065        1.61837       -2.99940
H          3.25546        3.93992       -7.74377
H          2.14778        4.50695       -6.48112
H          3.85314        4.18835       -6.09924
H          0.94611       -1.33751       -6.76093
H          0.74751       -0.26871       -8.15088
H          3.33354       -1.78925       -7.45881
H          2.18181       -2.24079       -8.73029
H          3.11197       -0.73780       -8.86365
H          1.07883       -0.90824       -4.26767
H          2.62205       -1.55774       -4.86643
H          2.59643       -0.50449       -3.45487

--Link1--
%chk=JID_6949.chk
%mem=8GB
%nprocshared=4
# B3LYP/6-311++G(d,p) empiricaldispersion=gd3bj scf=xqc pop=npa geom=check

CID_79224920_JID_6949_Energie_neutraal

0 1

--Link1--
%chk=JID_6949.chk
%mem=8GB
%nprocshared=4
# B3LYP/6-311++G(d,p) empiricaldispersion=gd3bj scf=xqc pop=npa geom=check

CID_79224920_JID_6949_Energie_kation

1 2

--Link1--
%chk=JID_6949.chk
%mem=8GB
%nprocshared=4
# B3LYP/6-311++G(d,p) empiricaldispersion=gd3bj scf=xqc pop=npa geom=check

CID_79224920_JID_6949_Energie_anion

-1 2
