%chk=JID_6103.chk
%mem=8GB
%nprocshared=4
# opt freq B3LYP/6-31G(d) empiricaldispersion=gd3bj scf=xqc

CID_81131501_JID_6103_neutraal

0 1
C          0.96473       -0.07401        0.05727
C          0.54559       -1.51161       -0.03425
N         -0.78380       -1.77305       -0.05103
C         -1.16487       -3.06443       -0.12286
C         -0.25652       -4.14412       -0.10328
C          1.10007       -3.84018       -0.15660
C          1.51081       -2.51129       -0.10273
N         -0.68634       -5.48249       -0.22367
N         -2.55798       -3.28275       -0.16940
C         -2.98172       -3.69346       -1.51792
C         -4.39397       -4.15930       -1.57429
C         -5.48875       -4.03329       -0.75355
C         -6.51015       -4.74772       -1.41764
N         -6.06963       -5.26611       -2.57043
O         -4.74085       -4.89321       -2.66693
C         -7.90704       -4.96266       -0.97944
H          1.53932        0.09377        0.97345
H          0.09114        0.58552        0.07632
H          1.57764        0.19782       -0.80774
H          1.84102       -4.63051       -0.22548
H          2.56768       -2.26516       -0.11397
H         -0.05308       -6.14572        0.21003
H         -1.63786       -5.56796        0.13814
H         -2.91945       -2.34122       -0.01110
H         -2.87587       -2.84175       -2.20326
H         -2.35265       -4.49841       -1.91479
H         -5.53578       -3.51397        0.19208
H         -8.51515       -5.41047       -1.77226
H         -7.93417       -5.63033       -0.11233
H         -8.37049       -4.01218       -0.69629

--Link1--
%chk=JID_6103.chk
%mem=8GB
%nprocshared=4
# B3LYP/6-311++G(d,p) empiricaldispersion=gd3bj scf=xqc pop=npa geom=check

CID_81131501_JID_6103_Energie_neutraal

0 1

--Link1--
%chk=JID_6103.chk
%mem=8GB
%nprocshared=4
# B3LYP/6-311++G(d,p) empiricaldispersion=gd3bj scf=xqc pop=npa geom=check

CID_81131501_JID_6103_Energie_kation

1 2

--Link1--
%chk=JID_6103.chk
%mem=8GB
%nprocshared=4
# B3LYP/6-311++G(d,p) empiricaldispersion=gd3bj scf=xqc pop=npa geom=check

CID_81131501_JID_6103_Energie_anion

-1 2
