%chk=JID_10855.chk
%mem=8GB
%nprocshared=4
# opt freq B3LYP/6-31G(d) empiricaldispersion=gd3bj scf=xqc

CID_114811760_JID_10855_neutraal

0 1
C          0.98547       -0.06161        0.07742
C          0.40880        0.89889       -0.94980
C          0.72223        0.45992       -2.37716
N         -0.21816       -0.59146       -2.80840
S          0.28258       -1.60829       -4.03945
O          1.51379       -2.23085       -3.61573
O         -0.84969       -2.41447       -4.42305
N          0.66642       -0.55332       -5.27510
C         -0.24600        0.46606       -5.70167
C          0.30221        1.71564       -6.05332
C         -0.54504        2.72735       -6.52797
C         -1.90631        2.48387       -6.70516
C         -2.43170        1.22413       -6.42101
C         -1.60020        0.21136       -5.93583
C         -3.82291        0.97309       -6.63710
C         -4.99351        0.77984       -6.82858
C         -6.42821        0.55864       -7.07154
C         -6.66101       -0.62691       -8.00496
O         -6.41807       -1.86355       -7.33970
C          1.76813        2.01003       -5.87731
H          0.57396       -1.06891       -0.03810
H          0.75152        0.28368        1.08951
H          2.07480       -0.12389       -0.01310
H         -0.67331        0.99424       -0.80086
H          0.84803        1.88839       -0.77754
H          0.58948        1.32229       -3.03592
H          1.76230        0.12726       -2.44989
H         -0.55463       -1.17800       -2.04488
H          1.04255       -1.08646       -6.05917
H         -0.14890        3.71181       -6.76772
H         -2.55003        3.27796       -7.07649
H         -2.02844       -0.76706       -5.73994
H         -6.93485        0.38682       -6.11527
H         -6.85538        1.46154       -7.52198
H         -7.70548       -0.63816       -8.33201
H         -6.02686       -0.57942       -8.89686
H         -5.49224       -1.85273       -7.03676
H          2.38014        1.22634       -6.33532
H          2.04573        2.95418       -6.35793
H          2.01523        2.08887       -4.81439

--Link1--
%chk=JID_10855.chk
%mem=8GB
%nprocshared=4
# B3LYP/6-311++G(d,p) empiricaldispersion=gd3bj scf=xqc pop=npa geom=check

CID_114811760_JID_10855_Energie_neutraal

0 1

--Link1--
%chk=JID_10855.chk
%mem=8GB
%nprocshared=4
# B3LYP/6-311++G(d,p) empiricaldispersion=gd3bj scf=xqc pop=npa geom=check

CID_114811760_JID_10855_Energie_kation

1 2

--Link1--
%chk=JID_10855.chk
%mem=8GB
%nprocshared=4
# B3LYP/6-311++G(d,p) empiricaldispersion=gd3bj scf=xqc pop=npa geom=check

CID_114811760_JID_10855_Energie_anion

-1 2
