%chk=JID_6066.chk
%mem=8GB
%nprocshared=4
# opt freq B3LYP/6-31G(d) empiricaldispersion=gd3bj scf=xqc

CID_90584234_JID_6066_neutraal

0 1
C          1.08695        0.04379        0.02285
C          0.19861        1.27812        0.12191
C          0.64146        2.40726       -0.81663
C          0.48102        2.14795       -2.32474
C         -0.91692        1.82219       -2.82004
C          0.18827        3.81101       -0.41539
O          0.99333        4.74876       -0.46920
N         -1.06811        4.13450       -0.02741
C         -2.33352        3.43281       -0.11143
C         -3.24594        3.43189        1.15768
C         -3.37281        4.81967        1.81445
C         -2.17634        5.07549        2.71842
S         -1.67888        3.46344        3.37025
C         -2.71073        2.48307        2.24438
O         -4.53077        3.03302        0.62069
C         -5.54613        2.61617        1.51993
H          1.03466       -0.40612       -0.97299
H          0.76274       -0.71049        0.74714
H          2.13145        0.28995        0.23837
H         -0.82645        0.96092       -0.07659
H          0.22554        1.63650        1.15759
H          1.73230        2.47069       -0.66564
H          0.84066        3.02455       -2.87904
H          1.14226        1.32090       -2.61147
H         -1.58843        2.67594       -2.70321
H         -0.88304        1.58441       -3.88878
H         -1.34183        0.95627       -2.30590
H         -1.12871        5.14054        0.07864
H         -2.87601        3.93343       -0.92506
H         -2.19553        2.41112       -0.46026
H         -4.28503        4.88752        2.41799
H         -3.47383        5.61117        1.06217
H         -1.33796        5.52710        2.18384
H         -2.44100        5.74903        3.53918
H         -3.50124        2.04675        2.85822
H         -2.14482        1.64575        1.82952
H         -5.36743        1.58468        1.83585
H         -5.63496        3.26952        2.39007
H         -6.49827        2.63327        0.98178

--Link1--
%chk=JID_6066.chk
%mem=8GB
%nprocshared=4
# B3LYP/6-311++G(d,p) empiricaldispersion=gd3bj scf=xqc pop=npa geom=check

CID_90584234_JID_6066_Energie_neutraal

0 1

--Link1--
%chk=JID_6066.chk
%mem=8GB
%nprocshared=4
# B3LYP/6-311++G(d,p) empiricaldispersion=gd3bj scf=xqc pop=npa geom=check

CID_90584234_JID_6066_Energie_kation

1 2

--Link1--
%chk=JID_6066.chk
%mem=8GB
%nprocshared=4
# B3LYP/6-311++G(d,p) empiricaldispersion=gd3bj scf=xqc pop=npa geom=check

CID_90584234_JID_6066_Energie_anion

-1 2
