%chk=JID_8429.chk
%mem=8GB
%nprocshared=4
# opt freq B3LYP/6-31G(d) empiricaldispersion=gd3bj scf=xqc

CID_151995481_JID_8429_neutraal

0 1
C          0.99328       -0.08411       -0.05367
C          1.81691        1.18507        0.02953
O          3.18688        0.81425        0.16820
C          4.08412        1.90656       -0.06219
C          3.98866        2.92022        1.07555
N          3.28508        4.06545        0.85902
C          3.16096        4.92985        1.88878
C          3.69358        4.71233        3.14614
C          4.40225        3.53077        3.36178
C          4.54951        2.62120        2.31482
C          5.00064        3.20473        4.68967
O          5.64122        2.16758        4.81937
N          4.77050        4.12104        5.68370
N          5.22816        3.74755        6.77572
N          5.62989        3.44134        7.79912
O          5.45014        1.47031       -0.13414
C          5.64475        0.29756       -0.91515
C          5.79065       -0.90078        0.00710
H         -0.07463        0.14585       -0.10479
H          1.17738       -0.72485        0.81504
H          1.27115       -0.66297       -0.94082
H          1.66392        1.78125       -0.87671
H          1.50195        1.76520        0.90301
H          3.84723        2.39123       -1.01793
H          2.59726        5.83276        1.66864
H          3.55019        5.45070        3.92690
H          5.08730        1.68593        2.45255
H          4.84551        0.15134       -1.65057
H          6.57936        0.42953       -1.47008
H          4.88280       -1.06637        0.59484
H          6.00778       -1.80840       -0.56236
H          6.60087       -0.73263        0.72512

--Link1--
%chk=JID_8429.chk
%mem=8GB
%nprocshared=4
# B3LYP/6-311++G(d,p) empiricaldispersion=gd3bj scf=xqc pop=npa geom=check

CID_151995481_JID_8429_Energie_neutraal

0 1

--Link1--
%chk=JID_8429.chk
%mem=8GB
%nprocshared=4
# B3LYP/6-311++G(d,p) empiricaldispersion=gd3bj scf=xqc pop=npa geom=check

CID_151995481_JID_8429_Energie_kation

1 2

--Link1--
%chk=JID_8429.chk
%mem=8GB
%nprocshared=4
# B3LYP/6-311++G(d,p) empiricaldispersion=gd3bj scf=xqc pop=npa geom=check

CID_151995481_JID_8429_Energie_anion

-1 2
