%chk=JID_3616.chk
%mem=8GB
%nprocshared=4
# opt freq B3LYP/6-31G(d) empiricaldispersion=gd3bj scf=xqc

CID_79554773_JID_3616_neutraal

0 1
C          0.96085        0.06646        0.06364
C          0.19261        1.34491       -0.24072
C          0.41594        1.82553       -1.67244
C         -0.23512        0.91569       -2.69651
O         -1.31380        0.36145       -2.50578
C          0.53065        0.69201       -3.97154
C          1.19301       -0.67864       -4.13132
C         -0.00687       -0.34653       -4.96094
C          1.17568        1.89581       -4.57701
O          0.51828        2.82458       -5.02159
O          2.53348        1.82757       -4.52764
C          3.23310        2.94783       -5.08814
C          3.37589        2.78217       -6.58969
H          0.62507       -0.76207       -0.56747
H          0.80933       -0.22425        1.10802
H          2.03477        0.20685       -0.09580
H         -0.87415        1.18178       -0.04909
H          0.52634        2.12723        0.45092
H         -0.02087        2.82210       -1.80143
H          1.49100        1.90233       -1.86507
H          2.15180       -0.74512       -4.63306
H          1.06677       -1.40706       -3.33680
H         -0.94343       -0.84352       -4.72965
H          0.13643       -0.16779       -6.02114
H          2.73860        3.89177       -4.83187
H          4.22517        2.96804       -4.62521
H          2.39697        2.77069       -7.07924
H          3.96810        3.59729       -7.01498
H          3.86161        1.83009       -6.82741

--Link1--
%chk=JID_3616.chk
%mem=8GB
%nprocshared=4
# B3LYP/6-311++G(d,p) empiricaldispersion=gd3bj scf=xqc pop=npa geom=check

CID_79554773_JID_3616_Energie_neutraal

0 1

--Link1--
%chk=JID_3616.chk
%mem=8GB
%nprocshared=4
# B3LYP/6-311++G(d,p) empiricaldispersion=gd3bj scf=xqc pop=npa geom=check

CID_79554773_JID_3616_Energie_kation

1 2

--Link1--
%chk=JID_3616.chk
%mem=8GB
%nprocshared=4
# B3LYP/6-311++G(d,p) empiricaldispersion=gd3bj scf=xqc pop=npa geom=check

CID_79554773_JID_3616_Energie_anion

-1 2
