%chk=JID_6073.chk
%mem=8GB
%nprocshared=4
# opt freq B3LYP/6-31G(d) empiricaldispersion=gd3bj scf=xqc

CID_82312122_JID_6073_neutraal

0 1
C          1.07132        0.00911       -0.06950
C          0.72489        1.33959       -0.75659
C          1.43583        1.42464       -2.15984
C          0.83125        0.57848       -3.26624
C         -0.10241        1.11064       -4.17080
C         -0.65481        0.32062       -5.18041
C         -0.28021       -1.01465       -5.30313
C          0.64920       -1.55834       -4.41982
C          1.20306       -0.76754       -3.41041
O          1.50095        2.78644       -2.59978
N         -0.75180        1.42575       -0.75384
C         -1.38127        2.70168       -0.33674
C         -0.98640        3.90154       -1.20491
C         -2.90180        2.47460       -0.49552
C         -1.08450        3.01346        1.15620
O         -1.34077        1.86925        1.97041
H          0.60574       -0.84708       -0.56879
H          0.73380        0.00678        0.97277
H          2.15470       -0.15205       -0.05690
H          1.14951        2.13440       -0.13331
H          2.48278        1.11489       -2.04265
H         -0.39629        2.15606       -4.09939
H         -1.37171        0.75160       -5.87418
H         -0.70758       -1.62908       -6.09094
H          0.94661       -2.59913       -4.51874
H          1.93250       -1.21327       -2.73803
H          2.06847        3.26100       -1.97041
H         -1.09696        1.16790       -1.68178
H         -1.13710        3.69300       -2.26947
H         -1.59615        4.77886       -0.95815
H          0.05747        4.18885       -1.04997
H         -3.25104        1.62120        0.09786
H         -3.46769        3.35425       -0.16717
H         -3.17106        2.28280       -1.54124
H         -0.04055        3.30433        1.31034
H         -1.71120        3.83422        1.52169
H         -1.19901        1.10605        1.37412

--Link1--
%chk=JID_6073.chk
%mem=8GB
%nprocshared=4
# B3LYP/6-311++G(d,p) empiricaldispersion=gd3bj scf=xqc pop=npa geom=check

CID_82312122_JID_6073_Energie_neutraal

0 1

--Link1--
%chk=JID_6073.chk
%mem=8GB
%nprocshared=4
# B3LYP/6-311++G(d,p) empiricaldispersion=gd3bj scf=xqc pop=npa geom=check

CID_82312122_JID_6073_Energie_kation

1 2

--Link1--
%chk=JID_6073.chk
%mem=8GB
%nprocshared=4
# B3LYP/6-311++G(d,p) empiricaldispersion=gd3bj scf=xqc pop=npa geom=check

CID_82312122_JID_6073_Energie_anion

-1 2
