%chk=JID_3524.chk
%mem=8GB
%nprocshared=4
# opt freq B3LYP/6-31G(d) empiricaldispersion=gd3bj scf=xqc

CID_145222925_JID_3524_neutraal

0 1
C          1.05137        0.08222       -0.02451
C          0.67713       -1.36942       -0.07295
C         -0.04449       -2.09898        0.80742
C         -0.54584       -1.46457        2.03219
C         -1.55537       -1.88063        2.80870
C         -0.39741       -3.58722        0.57736
C         -0.11379       -4.18618       -0.82413
C          1.34109       -4.59970       -1.07372
C          1.89540       -5.48736        0.04567
C          1.69283       -4.81958        1.40963
C          0.21634       -4.51463        1.65227
C          3.35789       -5.77817       -0.18693
C          3.85786       -7.00562       -0.37892
H          0.47847        0.66639        0.69823
H          0.87230        0.53318       -1.00658
H          2.11645        0.18391        0.20442
H          1.03551       -1.83658       -0.98388
H         -0.04751       -0.55016        2.34801
H         -1.82904       -1.31436        3.69408
H         -2.14208       -2.76706        2.60004
H         -1.49056       -3.64884        0.67699
H         -0.73405       -5.08715       -0.93263
H         -0.44967       -3.50377       -1.61404
H          1.97592       -3.71531       -1.19134
H          1.39392       -5.13550       -2.03042
H          1.33323       -6.43166        0.04039
H          2.27942       -3.89460        1.48008
H          2.05450       -5.48263        2.20574
H          0.10359       -4.10113        2.65972
H         -0.34130       -5.46101        1.65506
H          4.03817       -4.92794       -0.19498
H          4.92144       -7.15239       -0.54033
H          3.22468       -7.88727       -0.37930

--Link1--
%chk=JID_3524.chk
%mem=8GB
%nprocshared=4
# B3LYP/6-311++G(d,p) empiricaldispersion=gd3bj scf=xqc pop=npa geom=check

CID_145222925_JID_3524_Energie_neutraal

0 1

--Link1--
%chk=JID_3524.chk
%mem=8GB
%nprocshared=4
# B3LYP/6-311++G(d,p) empiricaldispersion=gd3bj scf=xqc pop=npa geom=check

CID_145222925_JID_3524_Energie_kation

1 2

--Link1--
%chk=JID_3524.chk
%mem=8GB
%nprocshared=4
# B3LYP/6-311++G(d,p) empiricaldispersion=gd3bj scf=xqc pop=npa geom=check

CID_145222925_JID_3524_Energie_anion

-1 2
