%chk=JID_2832.chk
%mem=8GB
%nprocshared=4
# opt freq B3LYP/6-31G(d) empiricaldispersion=gd3bj scf=xqc

CID_64572290_JID_2832_neutraal

0 1
C          1.01767        0.09730        0.01487
C          0.55220       -1.25834        0.53809
C          0.94747       -1.58807        1.99962
C          0.46969       -0.49773        2.99786
C         -1.03704       -0.26768        3.03595
C          0.36656       -2.98040        2.41775
O          1.16517       -4.08405        1.98567
C          0.79414       -4.86475        0.84782
C         -0.66590       -4.79842        0.40128
C          1.83384       -4.63049       -0.21905
C          1.63929       -4.35597       -1.51664
N          2.42637       -1.63417        2.08568
H          0.55139        0.92306        0.55934
H          0.73776        0.20266       -1.03872
H          2.10435        0.20475        0.08088
H         -0.53738       -1.31480        0.42591
H          0.95855       -2.01717       -0.13435
H          0.79292       -0.76629        4.01319
H          0.95980        0.45963        2.77950
H         -1.57755       -1.17819        3.30945
H         -1.27573        0.49490        3.78489
H         -1.41664        0.08766        2.07408
H          0.39052       -3.04351        3.51309
H         -0.68647       -3.07855        2.14368
H          0.95569       -5.90140        1.17188
H         -0.93533       -3.80765        0.02226
H         -0.86784       -5.52644       -0.39203
H         -1.33606       -5.02614        1.23723
H          2.86260       -4.71392        0.12980
H          2.48745       -4.21200       -2.18001
H          0.65100       -4.25747       -1.95207
H          2.69026       -1.89872        3.03557
H          2.72822       -2.43606        1.52361

--Link1--
%chk=JID_2832.chk
%mem=8GB
%nprocshared=4
# B3LYP/6-311++G(d,p) empiricaldispersion=gd3bj scf=xqc pop=npa geom=check

CID_64572290_JID_2832_Energie_neutraal

0 1

--Link1--
%chk=JID_2832.chk
%mem=8GB
%nprocshared=4
# B3LYP/6-311++G(d,p) empiricaldispersion=gd3bj scf=xqc pop=npa geom=check

CID_64572290_JID_2832_Energie_kation

1 2

--Link1--
%chk=JID_2832.chk
%mem=8GB
%nprocshared=4
# B3LYP/6-311++G(d,p) empiricaldispersion=gd3bj scf=xqc pop=npa geom=check

CID_64572290_JID_2832_Energie_anion

-1 2
