%chk=JID_9532.chk
%mem=8GB
%nprocshared=4
# opt freq B3LYP/6-31G(d) empiricaldispersion=gd3bj scf=xqc

CID_146932093_JID_9532_neutraal

0 1
C          1.00682       -0.09743       -0.02148
C          0.38300        0.44161        1.26636
C          0.05984        1.93363        1.14696
C         -1.18812        2.19776        0.30485
C         -2.39717        1.44985        0.87103
C         -2.16955       -0.07770        0.98618
C         -0.84420       -0.36058        1.73306
C         -2.24524       -0.86822       -0.31913
S         -4.02607        2.00788        0.20356
C         -3.94115        1.76168       -1.59025
S         -2.89343        2.91219       -2.50720
C         -3.78356        4.50713       -2.25890
C         -2.74820        5.58774       -1.90016
C         -1.84952        5.98633       -3.07368
C         -2.66408        6.39733       -4.30632
C         -3.70371        5.33164       -4.68424
C         -4.60159        4.95797       -3.49170
C         -5.67552        3.95440       -3.91597
C         -1.73875        6.68550       -5.48807
H          0.38519        0.07089       -0.90219
H          1.19683       -1.17276        0.06031
H          1.96896        0.39262       -0.20851
H          1.15146        0.33173        2.04383
H         -0.09710        2.34508        2.15262
H          0.91273        2.47568        0.72143
H         -0.98415        1.89382       -0.72430
H         -1.37343        3.27823        0.30361
H         -2.48151        1.79316        1.91259
H         -2.96630       -0.48416        1.62626
H         -0.61952       -1.43444        1.72334
H         -1.01097       -0.10855        2.79023
H         -1.82287       -1.87206       -0.20110
H         -3.28843       -1.01038       -0.61845
H         -1.71945       -0.37661       -1.13987
H         -3.62880        0.74737       -1.83009
H         -4.96055        1.85209       -1.97642
H         -4.46392        4.40265       -1.40789
H         -3.28545        6.48311       -1.55974
H         -2.12941        5.27042       -1.05184
H         -1.17407        5.16029       -3.32753
H         -1.20765        6.81975       -2.76260
H         -3.19996        7.32530       -4.06552
H         -3.20055        4.43872       -5.07618
H         -4.32786        5.71499       -5.50172
H         -5.13724        5.87207       -3.19588
H         -6.31250        3.68546       -3.06699
H         -6.32068        4.39059       -4.68653
H         -5.24515        3.03806       -4.33123
H         -2.31241        7.02418       -6.35710
H         -1.01762        7.46979       -5.23535
H         -1.17738        5.79149       -5.78107

--Link1--
%chk=JID_9532.chk
%mem=8GB
%nprocshared=4
# B3LYP/6-311++G(d,p) empiricaldispersion=gd3bj scf=xqc pop=npa geom=check

CID_146932093_JID_9532_Energie_neutraal

0 1

--Link1--
%chk=JID_9532.chk
%mem=8GB
%nprocshared=4
# B3LYP/6-311++G(d,p) empiricaldispersion=gd3bj scf=xqc pop=npa geom=check

CID_146932093_JID_9532_Energie_kation

1 2

--Link1--
%chk=JID_9532.chk
%mem=8GB
%nprocshared=4
# B3LYP/6-311++G(d,p) empiricaldispersion=gd3bj scf=xqc pop=npa geom=check

CID_146932093_JID_9532_Energie_anion

-1 2
