%chk=JID_10937.chk
%mem=8GB
%nprocshared=4
# opt freq B3LYP/6-31G(d) empiricaldispersion=gd3bj scf=xqc

CID_72006515_JID_10937_neutraal

0 1
C          2.19400       -0.06300        0.00100
C          0.73431       -0.25181       -0.11545
C         -0.06399       -1.33454       -0.41400
C         -1.40114       -0.87952       -0.32621
C         -1.33865        0.45790        0.01486
O         -0.03440        0.84532        0.12820
C         -2.38089        1.51411        0.30264
C         -3.06986        1.11390        1.63195
C         -3.55842        2.29670        2.45986
C         -4.74935        3.02780        1.86753
C         -4.49873        3.58023        0.47156
C         -4.50368        2.50929       -0.62379
N         -3.32789        1.65317       -0.82080
C         -2.68669        1.88963       -2.13937
C         -1.87879        3.18984       -2.24174
O         -2.07805        4.18580       -1.54487
N         -0.90327        3.25625       -3.21220
C         -1.20754        3.01346       -4.51530
O         -1.23617        3.89655       -5.36183
N         -1.45704        1.72277       -4.83909
H          2.54612        0.65832       -0.74273
H          2.45407        0.31044        0.99620
H          2.72582       -1.00595       -0.15900
H          0.27657       -2.33367       -0.64712
H         -2.30809       -1.44811       -0.47850
H         -1.84888        2.46140        0.45925
H         -2.35710        0.56763        2.26607
H         -3.89384        0.41166        1.44665
H         -3.84352        1.93023        3.45398
H         -2.73268        3.00113        2.61941
H         -5.62571        2.36824        1.85945
H         -5.00044        3.86331        2.53277
H         -5.31398        4.28060        0.24702
H         -3.58076        4.17580        0.45310
H         -5.35404        1.83864       -0.44357
H         -4.76232        3.01773       -1.56264
H         -2.03508        1.04492       -2.37998
H         -3.45531        1.90228       -2.92234
H         -0.54609        4.20397       -3.15682
H         -0.91097        1.01629       -4.36263
H         -1.56055        1.56890       -5.83596

--Link1--
%chk=JID_10937.chk
%mem=8GB
%nprocshared=4
# B3LYP/6-311++G(d,p) empiricaldispersion=gd3bj scf=xqc pop=npa geom=check

CID_72006515_JID_10937_Energie_neutraal

0 1

--Link1--
%chk=JID_10937.chk
%mem=8GB
%nprocshared=4
# B3LYP/6-311++G(d,p) empiricaldispersion=gd3bj scf=xqc pop=npa geom=check

CID_72006515_JID_10937_Energie_kation

1 2

--Link1--
%chk=JID_10937.chk
%mem=8GB
%nprocshared=4
# B3LYP/6-311++G(d,p) empiricaldispersion=gd3bj scf=xqc pop=npa geom=check

CID_72006515_JID_10937_Energie_anion

-1 2
