%chk=JID_10759.chk
%mem=8GB
%nprocshared=4
# opt freq B3LYP/6-31G(d) empiricaldispersion=gd3bj scf=xqc

CID_102657982_JID_10759_neutraal

0 1
C          0.95064        0.07336        0.04672
C          2.06028        0.60816        0.93720
O          2.30741        2.00024        0.69070
C          3.07623        2.28259       -0.40089
O          3.49993        1.43825       -1.18462
C          3.34332        3.70306       -0.55767
C          3.93570        4.27470       -1.65977
O          4.03885        5.61139       -1.44554
C          3.51618        5.80040       -0.19416
N          3.07112        4.69721        0.37146
N          3.56033        7.05168        0.28357
C          3.52763        8.26177       -0.46894
C          3.05830        8.99622        0.81237
C          2.87646        7.57784        1.41458
C          1.77105        9.78696        0.60220
O          4.07957        9.85178        1.39983
C          3.95837       10.20140        2.77223
C          4.05021       11.69923        3.01294
O          4.50822       12.23591        4.01054
O          3.49613       12.44671        2.03610
H          0.04443        0.67741        0.15937
H          0.71770       -0.96440        0.30180
H          1.23157        0.11542       -1.00979
H          1.75617        0.52261        1.98582
H          2.98166        0.02539        0.82287
H          4.31429        3.90051       -2.59967
H          4.51375        8.54692       -0.84661
H          2.80684        8.23495       -1.29336
H          1.84116        7.23005        1.49464
H          3.40853        7.37975        2.34914
H          1.34860       10.12044        1.55534
H          1.95696       10.67335       -0.01364
H          1.00568        9.18561        0.09939
H          3.01768        9.84420        3.20275
H          4.79025        9.72551        3.30068
H          3.64256       13.37010        2.32722

--Link1--
%chk=JID_10759.chk
%mem=8GB
%nprocshared=4
# B3LYP/6-311++G(d,p) empiricaldispersion=gd3bj scf=xqc pop=npa geom=check

CID_102657982_JID_10759_Energie_neutraal

0 1

--Link1--
%chk=JID_10759.chk
%mem=8GB
%nprocshared=4
# B3LYP/6-311++G(d,p) empiricaldispersion=gd3bj scf=xqc pop=npa geom=check

CID_102657982_JID_10759_Energie_kation

1 2

--Link1--
%chk=JID_10759.chk
%mem=8GB
%nprocshared=4
# B3LYP/6-311++G(d,p) empiricaldispersion=gd3bj scf=xqc pop=npa geom=check

CID_102657982_JID_10759_Energie_anion

-1 2
