%chk=JID_6706.chk
%mem=8GB
%nprocshared=4
# opt freq B3LYP/6-31G(d) empiricaldispersion=gd3bj scf=xqc

CID_63712206_JID_6706_neutraal

0 1
C          1.02860       -0.08008        0.05263
N         -0.09381       -0.34153        0.95036
C         -1.36904       -0.35090        0.23945
C         -2.12726       -1.67629        0.34433
C         -2.40539       -1.97252        2.12829
C         -1.58000       -3.36273        3.00390
N         -0.87741       -4.62783        2.06253
C         -0.60844       -4.48345        0.06386
C         -1.36158       -2.92870       -0.80044
C          0.12803       -1.50946        1.81853
C         -0.35501       -2.92979        1.22441
C         -2.24707       -3.90983        0.94520
C         -2.18473       -5.83903        0.95955
C         -0.51924       -6.61026        1.13345
O          0.90434       -5.77033        1.34686
C          1.10626       -4.11639        1.61687
H          0.87695        0.86234       -0.48611
H          1.17410       -0.87604       -0.68465
H          1.95928        0.03920        0.61856
H         -1.99183        0.43791        0.67916
H         -1.25872       -0.08343       -0.81906
H         -3.13222       -1.51076       -0.07310
H         -2.22650       -1.04777        2.69196
H         -3.49333       -2.11575        2.23853
H         -0.79753       -2.99831        3.67910
H         -2.33208       -3.85091        3.64009
H         -0.21366       -5.21663        2.57654
H         -1.01382       -5.29170       -0.57066
H          0.44107       -4.50068       -0.29368
H         -2.12108       -3.27637       -1.51918
H         -0.58635       -2.44457       -1.41449
H          1.20995       -1.59434        1.99952
H         -0.22340       -1.27470        2.82514
H          0.16767       -2.66884        0.28545
H         -3.04479       -3.87884        1.71499
H         -2.92948       -3.72943        0.09460
H         -2.78443       -6.16972        1.82162
H         -2.67474       -6.21594        0.05080
H         -0.55906       -7.28499        1.99819
H         -0.33020       -7.21382        0.23752
H          1.96230       -3.84299        0.98623
H          1.39297       -4.02207        2.67493

--Link1--
%chk=JID_6706.chk
%mem=8GB
%nprocshared=4
# B3LYP/6-311++G(d,p) empiricaldispersion=gd3bj scf=xqc pop=npa geom=check

CID_63712206_JID_6706_Energie_neutraal

0 1

--Link1--
%chk=JID_6706.chk
%mem=8GB
%nprocshared=4
# B3LYP/6-311++G(d,p) empiricaldispersion=gd3bj scf=xqc pop=npa geom=check

CID_63712206_JID_6706_Energie_kation

1 2

--Link1--
%chk=JID_6706.chk
%mem=8GB
%nprocshared=4
# B3LYP/6-311++G(d,p) empiricaldispersion=gd3bj scf=xqc pop=npa geom=check

CID_63712206_JID_6706_Energie_anion

-1 2
