%chk=JID_5253.chk
%mem=8GB
%nprocshared=4
# opt freq B3LYP/6-31G(d) empiricaldispersion=gd3bj scf=xqc

CID_63926860_JID_5253_neutraal

0 1
C          1.06503        0.07584        0.00434
C          0.81806       -1.07769       -0.90628
C          1.29582       -2.36701       -0.75658
N          0.86194       -3.10077       -1.82891
C          0.06891       -2.33747       -2.65873
C          0.04233       -1.05583       -2.11214
C         -0.66701        0.12527       -2.68706
C         -0.54353       -2.80325       -3.90283
O         -0.79745       -2.04273       -4.83320
C         -0.82767       -4.23470       -3.94651
C         -1.30145       -5.07977       -2.95632
C         -1.44664       -6.42419       -3.40802
C         -1.09770       -6.56205       -4.73204
S         -0.61084       -5.07768       -5.42558
C          2.15244       -2.96926        0.29849
H          0.13843        0.36148        0.51233
H          1.43265        0.93838       -0.56084
H          1.81118       -0.16353        0.76819
H          1.10553       -4.06862       -1.99602
H         -0.13972        0.48797       -3.57507
H         -1.69115       -0.13853       -2.97033
H         -0.72758        0.94834       -1.96876
H         -1.55014       -4.74898       -1.95383
H         -1.80242       -7.24548       -2.79727
H         -1.11823       -7.46075       -5.33383
H          3.17104       -2.57455        0.23040
H          1.75662       -2.73674        1.29227
H          2.20181       -4.05898        0.20452

--Link1--
%chk=JID_5253.chk
%mem=8GB
%nprocshared=4
# B3LYP/6-311++G(d,p) empiricaldispersion=gd3bj scf=xqc pop=npa geom=check

CID_63926860_JID_5253_Energie_neutraal

0 1

--Link1--
%chk=JID_5253.chk
%mem=8GB
%nprocshared=4
# B3LYP/6-311++G(d,p) empiricaldispersion=gd3bj scf=xqc pop=npa geom=check

CID_63926860_JID_5253_Energie_kation

1 2

--Link1--
%chk=JID_5253.chk
%mem=8GB
%nprocshared=4
# B3LYP/6-311++G(d,p) empiricaldispersion=gd3bj scf=xqc pop=npa geom=check

CID_63926860_JID_5253_Energie_anion

-1 2
