%chk=JID_5233.chk
%mem=8GB
%nprocshared=4
# opt freq B3LYP/6-31G(d) empiricaldispersion=gd3bj scf=xqc

CID_104500063_JID_5233_neutraal

0 1
C          0.24000       -1.20700        0.00000
C         -1.15850       -1.24186        0.00281
C         -1.90762       -0.05706        0.04572
C         -1.24454        1.18127        0.10025
C          0.16199        1.18614        0.04624
C          0.92710        0.00673        0.05088
N          2.31822        0.11975       -0.06128
C          3.18776       -1.03166        0.25836
C          3.39981       -1.95255       -0.94873
O          3.82697       -3.09891       -0.85672
N          3.12771       -1.38961       -2.16466
N         -1.91326        2.41428       -0.03983
C         -3.38632       -0.21289        0.03692
O         -3.98893       -1.23551       -0.23895
O         -4.05860        0.88568        0.43721
H          0.76490       -2.15648       -0.05797
H         -1.66197       -2.20650       -0.04342
H          0.67507        2.14418       -0.01170
H          2.65816        0.97609        0.37256
H          4.17584       -0.64881        0.53770
H          2.79793       -1.60798        1.10419
H          2.55071       -0.55296       -2.16389
H          3.13653       -1.98464       -2.98021
H         -2.88973        2.34371        0.26236
H         -1.43469        3.19823        0.39100
H         -4.99520        0.59525        0.39325

--Link1--
%chk=JID_5233.chk
%mem=8GB
%nprocshared=4
# B3LYP/6-311++G(d,p) empiricaldispersion=gd3bj scf=xqc pop=npa geom=check

CID_104500063_JID_5233_Energie_neutraal

0 1

--Link1--
%chk=JID_5233.chk
%mem=8GB
%nprocshared=4
# B3LYP/6-311++G(d,p) empiricaldispersion=gd3bj scf=xqc pop=npa geom=check

CID_104500063_JID_5233_Energie_kation

1 2

--Link1--
%chk=JID_5233.chk
%mem=8GB
%nprocshared=4
# B3LYP/6-311++G(d,p) empiricaldispersion=gd3bj scf=xqc pop=npa geom=check

CID_104500063_JID_5233_Energie_anion

-1 2
