%chk=JID_10780.chk
%mem=8GB
%nprocshared=4
# opt freq B3LYP/6-31G(d) empiricaldispersion=gd3bj scf=xqc

CID_66201462_JID_10780_neutraal

0 1
C          0.65300       -1.21900        0.25200
C         -0.80222       -1.51038        0.70108
N         -1.67748       -0.34193        0.89821
C         -1.47457        0.66041       -0.16207
C          0.00342        0.97868       -0.45747
N          0.76579       -0.22361       -0.82538
C         -1.70254        0.29212        2.23016
C         -2.41216       -0.61186        3.25560
N         -1.36878       -0.17858        4.20370
C         -0.44649        0.17805        3.10582
C         -1.02803       -0.89807        5.33296
O         -1.67518       -1.85869        5.74717
C          0.20895       -0.51015        6.05728
C          0.95139       -1.49004        6.73220
C          2.12879       -1.15280        7.39527
C          2.54854        0.17296        7.41350
C          1.80688        1.16817        6.78199
C          0.63199        0.82627        6.10556
O          3.70166        0.46545        8.07974
O          0.57461       -2.80660        6.77942
H          1.26129       -0.87804        1.09506
H          1.11097       -2.15405       -0.09130
H         -0.79343       -2.17132        1.57453
H         -1.26768       -2.10840       -0.09458
H         -1.93591        0.27117       -1.07981
H         -2.01562        1.58924        0.05696
H          0.47160        1.46530        0.40676
H          0.05903        1.69177       -1.28750
H          0.34358       -0.62107       -1.66589
H         -2.13503        1.30345        2.23844
H         -3.41522       -0.28558        3.54371
H         -2.40681       -1.69295        3.08524
H          0.27324       -0.62361        2.93768
H          0.07784        1.12507        3.25595
H          2.70767       -1.91774        7.90449
H          2.12196        2.20702        6.80998
H          0.04469        1.61110        5.63602
H          3.86245        1.42190        8.03237
H         -0.36234       -2.86103        6.48539

--Link1--
%chk=JID_10780.chk
%mem=8GB
%nprocshared=4
# B3LYP/6-311++G(d,p) empiricaldispersion=gd3bj scf=xqc pop=npa geom=check

CID_66201462_JID_10780_Energie_neutraal

0 1

--Link1--
%chk=JID_10780.chk
%mem=8GB
%nprocshared=4
# B3LYP/6-311++G(d,p) empiricaldispersion=gd3bj scf=xqc pop=npa geom=check

CID_66201462_JID_10780_Energie_kation

1 2

--Link1--
%chk=JID_10780.chk
%mem=8GB
%nprocshared=4
# B3LYP/6-311++G(d,p) empiricaldispersion=gd3bj scf=xqc pop=npa geom=check

CID_66201462_JID_10780_Energie_anion

-1 2
