%chk=JID_9386.chk
%mem=8GB
%nprocshared=4
# opt freq B3LYP/6-31G(d) empiricaldispersion=gd3bj scf=xqc

CID_113382425_JID_9386_neutraal

0 1
C          1.78700        0.09100       -0.05500
C          0.81847        1.00898        0.68043
C         -0.45785        1.31388       -0.09194
C         -1.57178        0.28753        0.11195
C         -1.32504       -1.15966       -0.34532
C         -0.00860       -1.77615        0.16258
C          1.28356       -1.28599       -0.47688
N         -1.56928       -1.34927       -1.77900
C         -1.18157       -0.39983       -2.82894
C         -1.43966       -1.07337       -4.18988
C         -1.59468       -2.50017       -3.78672
C         -1.69409       -2.58978       -2.39515
C         -1.92065       -3.82610       -1.81288
C         -2.00264       -4.96666       -2.62369
C         -1.87658       -4.86386       -4.02063
C         -1.68253       -3.61184       -4.61301
C         -1.94927       -6.05207       -4.90446
O         -1.86723       -6.04476       -6.11903
O         -2.11163       -7.20140       -4.22493
H          2.66265       -0.04817        0.59296
H          2.16831        0.60859       -0.94483
H          0.58527        0.60814        1.67375
H          1.34296        1.95705        0.85803
H         -0.23656        1.47159       -1.15048
H         -0.84355        2.27488        0.27397
H         -2.48329        0.66675       -0.36867
H         -1.79905        0.26275        1.18705
H         -2.12119       -1.72604        0.16022
H         -0.04658       -2.86037        0.00330
H          0.05168       -1.65714        1.25188
H          1.21326       -1.33723       -1.56721
H          2.07311       -2.00825       -0.22694
H         -1.75755        0.52930       -2.75765
H         -0.12064       -0.14222       -2.75484
H         -0.60351       -0.91853       -4.87768
H         -2.36629       -0.70299       -4.64059
H         -2.03761       -3.92858       -0.73981
H         -2.16893       -5.93333       -2.15443
H         -1.60361       -3.50932       -5.69142
H         -2.13336       -7.88511       -4.92659

--Link1--
%chk=JID_9386.chk
%mem=8GB
%nprocshared=4
# B3LYP/6-311++G(d,p) empiricaldispersion=gd3bj scf=xqc pop=npa geom=check

CID_113382425_JID_9386_Energie_neutraal

0 1

--Link1--
%chk=JID_9386.chk
%mem=8GB
%nprocshared=4
# B3LYP/6-311++G(d,p) empiricaldispersion=gd3bj scf=xqc pop=npa geom=check

CID_113382425_JID_9386_Energie_kation

1 2

--Link1--
%chk=JID_9386.chk
%mem=8GB
%nprocshared=4
# B3LYP/6-311++G(d,p) empiricaldispersion=gd3bj scf=xqc pop=npa geom=check

CID_113382425_JID_9386_Energie_anion

-1 2
