%chk=JID_6733.chk
%mem=8GB
%nprocshared=4
# opt freq B3LYP/6-31G(d) empiricaldispersion=gd3bj scf=xqc

CID_117319998_JID_6733_neutraal

0 1
C          1.04130        0.06783        0.06078
C          0.42490       -0.57710        1.31361
C          0.90213        0.15942        2.58300
C         -1.10897       -0.62568        1.17612
C         -1.93389        0.51266        1.31877
C         -3.34173        0.40822        1.25364
C         -3.93946       -0.81293        0.92766
C         -3.13704       -1.93248        0.70522
C         -1.74836       -1.83737        0.83443
C         -5.40562       -0.99930        0.80353
O         -6.24418       -0.18978        1.17466
O         -4.11446        1.52722        1.43616
C         -4.35666        1.73748        2.82857
O         -1.33093        1.72281        1.56567
C         -1.62993        2.70452        0.57004
N          0.99965       -1.94079        1.41397
H          0.72175        1.10761       -0.06181
H          0.75320       -0.47007       -0.85080
H          2.13701        0.07536        0.11045
H          0.75041        1.24087        2.52730
H          0.38463       -0.20782        3.47731
H          1.97941        0.02257        2.74317
H         -3.57270       -2.89382        0.44294
H         -1.16052       -2.73644        0.65165
H         -5.72411       -1.96005        0.36407
H         -5.08948        2.54443        2.92179
H         -4.77127        0.84473        3.30987
H         -3.44130        2.05093        3.34136
H         -0.74524        3.33858        0.45579
H         -1.85487        2.26488       -0.40870
H         -2.45251        3.34292        0.90426
H          2.01659       -1.87649        1.44141
H          0.72415       -2.34222        2.31020

--Link1--
%chk=JID_6733.chk
%mem=8GB
%nprocshared=4
# B3LYP/6-311++G(d,p) empiricaldispersion=gd3bj scf=xqc pop=npa geom=check

CID_117319998_JID_6733_Energie_neutraal

0 1

--Link1--
%chk=JID_6733.chk
%mem=8GB
%nprocshared=4
# B3LYP/6-311++G(d,p) empiricaldispersion=gd3bj scf=xqc pop=npa geom=check

CID_117319998_JID_6733_Energie_kation

1 2

--Link1--
%chk=JID_6733.chk
%mem=8GB
%nprocshared=4
# B3LYP/6-311++G(d,p) empiricaldispersion=gd3bj scf=xqc pop=npa geom=check

CID_117319998_JID_6733_Energie_anion

-1 2
