%chk=JID_9308.chk
%mem=8GB
%nprocshared=4
# opt freq B3LYP/6-31G(d) empiricaldispersion=gd3bj scf=xqc

CID_83934042_JID_9308_neutraal

0 1
C          0.92843       -0.03941        0.05767
C          0.45422        0.31409       -1.35820
C          1.08928       -0.63722       -2.40793
C          1.08841       -2.14525       -2.12724
N         -0.23852       -2.73571       -2.01914
C         -1.09949        0.43589       -1.45716
C         -1.70592        1.33789       -0.36748
C         -1.58834        0.87087       -2.83949
C         -1.35906        2.14465       -3.38922
C         -1.89919        2.47808       -4.64692
C         -2.58548        1.52513       -5.41751
C         -2.77891        0.25050       -4.88900
C         -2.29559       -0.06674       -3.61489
O         -3.03592        1.94244       -6.64355
C         -3.59612        0.95694       -7.50008
O         -1.72619        3.74598       -5.15736
C         -2.81344        4.57536       -4.74686
O         -0.66279        3.05495       -2.63278
C          0.47212        3.59053       -3.31422
H          0.43797       -0.94225        0.43464
H          0.71940        0.77531        0.75833
H          2.01151       -0.20257        0.07667
H          0.87441        1.30502       -1.57199
H          0.65789       -0.45521       -3.39872
H          2.14455       -0.34419       -2.50530
H          1.61236       -2.64068       -2.95316
H          1.66245       -2.37027       -1.22200
H         -0.14744       -3.75150       -1.99893
H         -0.64572       -2.48549       -1.11944
H         -1.52521       -0.55307       -1.25477
H         -1.21389        2.31374       -0.31461
H         -2.77452        1.50717       -0.54320
H         -1.61442        0.87082        0.61893
H         -3.30922       -0.52317       -5.43373
H         -2.46423       -1.07295       -3.23254
H         -2.88260        0.15044       -7.69958
H         -4.53211        0.56538       -7.08869
H         -3.82908        1.43782       -8.45503
H         -3.76997        4.19990       -5.12649
H         -2.84935        4.67372       -3.65632
H         -2.65106        5.57152       -5.16921
H          1.24232        3.79267       -2.56333
H          0.89684        2.89497       -4.04750
H          0.21577        4.54306       -3.78637

--Link1--
%chk=JID_9308.chk
%mem=8GB
%nprocshared=4
# B3LYP/6-311++G(d,p) empiricaldispersion=gd3bj scf=xqc pop=npa geom=check

CID_83934042_JID_9308_Energie_neutraal

0 1

--Link1--
%chk=JID_9308.chk
%mem=8GB
%nprocshared=4
# B3LYP/6-311++G(d,p) empiricaldispersion=gd3bj scf=xqc pop=npa geom=check

CID_83934042_JID_9308_Energie_kation

1 2

--Link1--
%chk=JID_9308.chk
%mem=8GB
%nprocshared=4
# B3LYP/6-311++G(d,p) empiricaldispersion=gd3bj scf=xqc pop=npa geom=check

CID_83934042_JID_9308_Energie_anion

-1 2
