%chk=JID_10432.chk
%mem=8GB
%nprocshared=4
# opt freq B3LYP/6-31G(d) empiricaldispersion=gd3bj scf=xqc

CID_153734110_JID_10432_neutraal

0 1
C          1.34400       -0.22500        0.03600
C          0.69465        0.97702       -0.24175
C         -0.69139        1.07713       -0.09604
C         -1.44318       -0.02527        0.33448
C         -0.77538       -1.22724        0.61496
C          0.60859       -1.32732        0.46316
C         -2.94226        0.06617        0.50811
N         -3.32578        0.91355        1.62846
C         -3.81157        2.26047        1.34884
C         -5.31679        2.40453        1.45586
C         -5.86073        3.62824        1.87831
C         -7.24330        3.80127        1.97505
C         -8.10218        2.75710        1.64204
C         -7.57973        1.54292        1.20433
C         -6.19726        1.36984        1.10360
C         -3.25950        0.40070        2.91768
O         -2.94793       -0.76969        3.12651
N         -3.56743        1.29661        3.90351
N         -3.63286        0.76158        5.01982
N         -3.70543        0.31244        6.06617
H          2.42217       -0.30073       -0.07646
H          1.26971        1.83915       -0.56979
H         -1.17657        2.02385       -0.31734
H         -1.33154       -2.09378        0.96877
H          1.11139       -2.26464        0.68651
H         -3.39688        0.44057       -0.41719
H         -3.36323       -0.93424        0.66847
H         -3.32521        2.94552        2.05391
H         -3.49915        2.56453        0.34327
H         -5.20849        4.45729        2.14538
H         -7.64987        4.75097        2.31328
H         -9.17793        2.88928        1.72277
H         -8.24890        0.72700        0.94281
H         -5.82038        0.41075        0.75836

--Link1--
%chk=JID_10432.chk
%mem=8GB
%nprocshared=4
# B3LYP/6-311++G(d,p) empiricaldispersion=gd3bj scf=xqc pop=npa geom=check

CID_153734110_JID_10432_Energie_neutraal

0 1

--Link1--
%chk=JID_10432.chk
%mem=8GB
%nprocshared=4
# B3LYP/6-311++G(d,p) empiricaldispersion=gd3bj scf=xqc pop=npa geom=check

CID_153734110_JID_10432_Energie_kation

1 2

--Link1--
%chk=JID_10432.chk
%mem=8GB
%nprocshared=4
# B3LYP/6-311++G(d,p) empiricaldispersion=gd3bj scf=xqc pop=npa geom=check

CID_153734110_JID_10432_Energie_anion

-1 2
