%chk=JID_264.chk
%mem=8GB
%nprocshared=4
# opt freq B3LYP/6-31G(d) empiricaldispersion=gd3bj scf=xqc

CID_72765365_JID_264_neutraal

0 1
C          1.07687       -0.00807       -0.06345
C          0.57020        1.37511       -0.43828
C          0.13558        2.56160       -0.75982
C         -0.34506        3.90136       -1.12183
C          0.30201        4.99523       -0.27000
C          1.82596        5.12262       -0.40993
C          2.34085        5.39711       -1.82993
C          1.82035        6.70694       -2.41090
C          3.85349        5.46103       -1.79391
O          4.57346        4.83102       -2.56273
H          0.71787       -0.74565       -0.78658
H          0.71567       -0.28064        0.93207
H          2.17038       -0.01633       -0.05978
H         -0.17280        4.08885       -2.18664
H         -1.43085        3.94033       -0.97370
H         -0.16649        5.95571       -0.51521
H          0.07341        4.80920        0.78781
H          2.16014        5.92743        0.25902
H          2.30304        4.21159       -0.02569
H          2.06960        4.57037       -2.49597
H          2.03504        7.55082       -1.74583
H          2.29607        6.92132       -3.37452
H          0.73968        6.66720       -2.57724
H          4.29161        6.15471       -1.05502

--Link1--
%chk=JID_264.chk
%mem=8GB
%nprocshared=4
# B3LYP/6-311++G(d,p) empiricaldispersion=gd3bj scf=xqc pop=npa geom=check

CID_72765365_JID_264_Energie_neutraal

0 1

--Link1--
%chk=JID_264.chk
%mem=8GB
%nprocshared=4
# B3LYP/6-311++G(d,p) empiricaldispersion=gd3bj scf=xqc pop=npa geom=check

CID_72765365_JID_264_Energie_kation

1 2

--Link1--
%chk=JID_264.chk
%mem=8GB
%nprocshared=4
# B3LYP/6-311++G(d,p) empiricaldispersion=gd3bj scf=xqc pop=npa geom=check

CID_72765365_JID_264_Energie_anion

-1 2
