%chk=JID_5146.chk
%mem=8GB
%nprocshared=4
# opt freq B3LYP/6-31G(d) empiricaldispersion=gd3bj scf=xqc

CID_116099426_JID_5146_neutraal

0 1
C          1.03582        0.07736       -0.05227
C          0.40240        1.37912        0.42396
C          0.94693        2.61871       -0.29368
N          0.62074        2.57443       -1.71758
C          1.12515        3.73509       -2.45387
C          2.62013        3.89681       -2.46391
N          3.26799        4.87609       -1.85725
C          4.57465        4.75489       -2.22967
C          4.74128        3.67798       -3.06248
N          3.50877        3.09137       -3.15786
C          3.15991        1.88037       -3.87641
C          4.28409        1.07695       -4.54259
C          5.29367        0.39587       -3.61297
S          4.53529       -0.74977       -2.41702
C          4.96609        0.11223       -0.88180
H          0.77188       -0.15221       -1.08848
H          0.68567       -0.75510        0.56680
H          2.12482        0.12161        0.03024
H         -0.68597        1.31987        0.30230
H          0.59389        1.48811        1.49833
H          0.49976        3.50994        0.16180
H          2.03022        2.66673       -0.13398
H          0.96685        1.71683       -2.12982
H          0.77138        3.66598       -3.48923
H          0.66878        4.64652       -2.04755
H          5.32417        5.46028       -1.89419
H          5.62220        3.30903       -3.56564
H          2.62118        1.23708       -3.17773
H          2.44991        2.18894       -4.65325
H          3.81501        0.30158       -5.16334
H          4.83159        1.72361       -5.23929
H          5.98059       -0.19709       -4.22716
H          5.91091        1.12778       -3.08705
H          6.05034        0.22347       -0.79721
H          4.48951        1.09510       -0.85014
H          4.61284       -0.47382       -0.02929

--Link1--
%chk=JID_5146.chk
%mem=8GB
%nprocshared=4
# B3LYP/6-311++G(d,p) empiricaldispersion=gd3bj scf=xqc pop=npa geom=check

CID_116099426_JID_5146_Energie_neutraal

0 1

--Link1--
%chk=JID_5146.chk
%mem=8GB
%nprocshared=4
# B3LYP/6-311++G(d,p) empiricaldispersion=gd3bj scf=xqc pop=npa geom=check

CID_116099426_JID_5146_Energie_kation

1 2

--Link1--
%chk=JID_5146.chk
%mem=8GB
%nprocshared=4
# B3LYP/6-311++G(d,p) empiricaldispersion=gd3bj scf=xqc pop=npa geom=check

CID_116099426_JID_5146_Energie_anion

-1 2
