%chk=JID_8325.chk
%mem=8GB
%nprocshared=4
# opt freq B3LYP/6-31G(d) empiricaldispersion=gd3bj scf=xqc

CID_107467797_JID_8325_neutraal

0 1
C          1.00130        0.08047       -0.05935
C          0.85183       -0.31256        1.40793
C          0.45474        0.87403        2.30491
C         -0.97208        1.40724        2.05804
C         -2.07930        0.47450        2.52521
O         -2.43033        0.47589        3.71167
N         -2.60187       -0.51108        1.74188
C         -2.61241       -0.70908        0.34498
C         -2.55758       -2.02587       -0.15725
C         -2.54184       -2.26150       -1.54140
C         -2.60571       -1.19755       -2.43785
C         -2.72494        0.10195       -1.95524
C         -2.76612        0.33891       -0.57690
O         -2.99000        1.63065       -0.17597
C         -4.38998        1.87391       -0.02818
C         -2.46964       -3.15907        0.71915
N         -2.41131       -4.06600        1.43959
N          0.68697        0.55530        3.71678
H          0.08015        0.48301       -0.48068
H          1.28524       -0.79450       -0.65298
H          1.78603        0.83468       -0.17834
H          0.13598       -1.13500        1.50551
H          1.82091       -0.71286        1.73394
H          1.14345        1.69631        2.07192
H         -1.10667        2.34629        2.61228
H         -1.06979        1.68127        1.01274
H         -3.02866       -1.23003        2.31967
H         -2.47000       -3.27823       -1.92645
H         -2.58094       -1.38245       -3.50937
H         -2.80618        0.93376       -2.65101
H         -4.85175        1.16892        0.67137
H         -4.51169        2.88285        0.37674
H         -4.89534        1.83386       -0.99911
H          1.53124       -0.00179        3.83387
H         -0.08477        0.00620        4.10197

--Link1--
%chk=JID_8325.chk
%mem=8GB
%nprocshared=4
# B3LYP/6-311++G(d,p) empiricaldispersion=gd3bj scf=xqc pop=npa geom=check

CID_107467797_JID_8325_Energie_neutraal

0 1

--Link1--
%chk=JID_8325.chk
%mem=8GB
%nprocshared=4
# B3LYP/6-311++G(d,p) empiricaldispersion=gd3bj scf=xqc pop=npa geom=check

CID_107467797_JID_8325_Energie_kation

1 2

--Link1--
%chk=JID_8325.chk
%mem=8GB
%nprocshared=4
# B3LYP/6-311++G(d,p) empiricaldispersion=gd3bj scf=xqc pop=npa geom=check

CID_107467797_JID_8325_Energie_anion

-1 2
