%chk=JID_10119.chk
%mem=8GB
%nprocshared=4
# opt freq B3LYP/6-31G(d) empiricaldispersion=gd3bj scf=xqc

CID_64345262_JID_10119_neutraal

0 1
C          1.07962       -0.02839        0.05344
C          0.61003       -0.52245       -1.30608
C          1.41365       -1.71790       -1.83010
C          1.35288       -3.00183       -0.97284
C         -0.08164       -3.47436       -0.62737
C         -1.08357       -3.64778       -1.77830
C         -1.13756       -5.02069       -2.47850
N         -1.05910       -6.23504       -1.64597
C         -0.68049       -7.39860       -2.49866
C          0.78733       -7.45876       -2.82643
C          1.41933       -7.12064       -4.00890
C          2.82482       -7.34785       -3.96032
C          3.21987       -7.86658       -2.74816
S          1.90168       -8.08815       -1.68260
C         -2.27318       -6.59765       -0.86845
C         -1.82626       -7.37521        0.38394
C         -3.20143       -5.47401       -0.39620
C          2.17239       -4.14652       -1.60511
C          3.66900       -3.88235       -1.80971
N          4.37096       -3.58766       -0.56609
H          0.89942       -0.77076        0.83613
H          0.53800        0.88210        0.32939
H          2.14879        0.20568        0.03854
H         -0.45793       -0.75954       -1.26283
H          0.71243        0.29927       -2.02555
H          1.08243       -1.94090       -2.85152
H          2.45751       -1.39433       -1.92059
H          1.82031       -2.77258       -0.00660
H         -0.02847       -4.38917       -0.02549
H         -0.50935       -2.72553        0.05287
H         -2.07632       -3.40607       -1.38828
H         -0.91712       -2.88580       -2.54741
H         -2.03572       -5.05926       -3.10968
H         -0.30024       -5.01020       -3.18394
H         -0.93266       -8.34972       -2.01150
H         -1.27044       -7.39362       -3.42606
H          0.89571       -6.72168       -4.86901
H          3.51107       -7.14230       -4.77220
H          4.21983       -8.13080       -2.43329
H         -2.90691       -7.25653       -1.47866
H         -1.25415       -8.27459        0.13712
H         -1.20242       -6.75001        1.03340
H         -2.69423       -7.70194        0.96771
H         -4.04343       -5.89045        0.16985
H         -2.68823       -4.77260        0.26867
H         -3.63912       -4.93346       -1.24062
H          2.06579       -5.03858       -0.97668
H          1.74957       -4.39272       -2.58389
H          4.12215       -4.77484       -2.25489
H          3.82464       -3.06633       -2.52239
H          5.35766       -3.43109       -0.76443
H          4.01945       -2.71898       -0.16771

--Link1--
%chk=JID_10119.chk
%mem=8GB
%nprocshared=4
# B3LYP/6-311++G(d,p) empiricaldispersion=gd3bj scf=xqc pop=npa geom=check

CID_64345262_JID_10119_Energie_neutraal

0 1

--Link1--
%chk=JID_10119.chk
%mem=8GB
%nprocshared=4
# B3LYP/6-311++G(d,p) empiricaldispersion=gd3bj scf=xqc pop=npa geom=check

CID_64345262_JID_10119_Energie_kation

1 2

--Link1--
%chk=JID_10119.chk
%mem=8GB
%nprocshared=4
# B3LYP/6-311++G(d,p) empiricaldispersion=gd3bj scf=xqc pop=npa geom=check

CID_64345262_JID_10119_Energie_anion

-1 2
