%chk=JID_7323.chk
%mem=8GB
%nprocshared=4
# opt freq B3LYP/6-31G(d) empiricaldispersion=gd3bj scf=xqc

CID_88680015_JID_7323_neutraal

0 1
C          1.00148        0.08054        0.05926
C          0.05116        0.73787        0.73891
C         -1.41405        0.41506        0.67438
N         -1.88438       -0.04433        1.99736
C         -2.19467        1.05562        2.93137
C         -3.54120        0.77777        3.53376
C         -3.77302        0.58128        4.83885
C         -1.44993       -1.27466        2.51968
C         -1.51476       -2.53634        2.04978
C         -2.30234       -2.76875        0.81264
O         -2.23677       -3.78900        0.13399
C         -0.88014       -3.64811        2.79668
C         -1.35248       -4.95814        2.73296
C         -0.70980       -5.95561        3.46595
C          0.38871       -5.62779        4.24705
C          0.79739       -4.30780        4.26735
N          0.18928       -3.32089        3.57286
H          0.76426       -0.75893       -0.58755
H          2.04652        0.35788        0.15580
H          0.34389        1.56217        1.38308
H         -1.96983        1.30524        0.35596
H         -1.60800       -0.34124       -0.09250
H         -1.41255        1.14840        3.69500
H         -2.25001        2.02178        2.41566
H         -4.37538        0.73479        2.83803
H         -4.77702        0.37772        5.19825
H         -2.97145        0.60230        5.57036
H         -0.98035       -1.12098        3.49346
H         -2.98966       -1.95706        0.52503
H         -2.21268       -5.22168        2.12568
H         -1.06709       -6.98048        3.41997
H          0.91289       -6.38102        4.82378
H          1.65222       -3.99560        4.86026

--Link1--
%chk=JID_7323.chk
%mem=8GB
%nprocshared=4
# B3LYP/6-311++G(d,p) empiricaldispersion=gd3bj scf=xqc pop=npa geom=check

CID_88680015_JID_7323_Energie_neutraal

0 1

--Link1--
%chk=JID_7323.chk
%mem=8GB
%nprocshared=4
# B3LYP/6-311++G(d,p) empiricaldispersion=gd3bj scf=xqc pop=npa geom=check

CID_88680015_JID_7323_Energie_kation

1 2

--Link1--
%chk=JID_7323.chk
%mem=8GB
%nprocshared=4
# B3LYP/6-311++G(d,p) empiricaldispersion=gd3bj scf=xqc pop=npa geom=check

CID_88680015_JID_7323_Energie_anion

-1 2
