%chk=JID_4116.chk
%mem=8GB
%nprocshared=4
# opt freq B3LYP/6-31G(d) empiricaldispersion=gd3bj scf=xqc

CID_62011326_JID_4116_neutraal

0 1
C          0.99934       -0.03657        0.09307
N          0.19452        1.11090        0.54508
C         -1.00262        1.23380       -0.31237
C         -2.21084        1.84551        0.41532
C         -2.24109        3.36470        0.51528
C         -2.56425        3.99950       -0.81233
O         -3.69751        4.10618       -1.26110
O         -1.42767        4.40005       -1.44321
C         -1.65262        5.00467       -2.71791
C          1.03610        2.32936        0.54206
C          1.21953        2.89494        1.94997
C          2.09877        2.02005        2.80842
O          3.28874        2.23671        3.00342
N          1.46775        0.94508        3.36320
H          0.42887       -0.96695        0.19228
H          1.89476       -0.15840        0.71224
H          1.31357        0.06930       -0.95187
H         -0.78322        1.74783       -1.25592
H         -1.32848        0.22415       -0.59962
H         -3.11795        1.51309       -0.10748
H         -2.27417        1.41991        1.42493
H         -3.03448        3.66922        1.20930
H         -1.32182        3.79021        0.92092
H         -2.25847        4.35722       -3.36013
H         -2.13067        5.98052       -2.58971
H         -0.68171        5.15210       -3.19870
H          2.02381        2.13453        0.10203
H          0.59848        3.11161       -0.08766
H          1.69195        3.88271        1.89054
H          0.25709        3.03900        2.45410
H          0.63465        0.59450        2.89993
H          2.05594        0.27530        3.84013

--Link1--
%chk=JID_4116.chk
%mem=8GB
%nprocshared=4
# B3LYP/6-311++G(d,p) empiricaldispersion=gd3bj scf=xqc pop=npa geom=check

CID_62011326_JID_4116_Energie_neutraal

0 1

--Link1--
%chk=JID_4116.chk
%mem=8GB
%nprocshared=4
# B3LYP/6-311++G(d,p) empiricaldispersion=gd3bj scf=xqc pop=npa geom=check

CID_62011326_JID_4116_Energie_kation

1 2

--Link1--
%chk=JID_4116.chk
%mem=8GB
%nprocshared=4
# B3LYP/6-311++G(d,p) empiricaldispersion=gd3bj scf=xqc pop=npa geom=check

CID_62011326_JID_4116_Energie_anion

-1 2
