%chk=JID_4959.chk
%mem=8GB
%nprocshared=4
# opt freq B3LYP/6-31G(d) empiricaldispersion=gd3bj scf=xqc

CID_65950325_JID_4959_neutraal

0 1
C          1.04094       -0.09067        0.01013
C          0.81300       -1.27071       -0.92330
C          2.09862       -2.06743       -1.14758
C          2.60262       -2.88594        0.07127
N          2.74936       -4.00034       -0.85333
C          1.86905       -3.43318       -1.85606
C          3.27999       -5.23025       -0.60885
O          3.86410       -5.46642        0.45187
C          3.16682       -6.31907       -1.66476
C          3.81955       -5.96188       -2.98761
C          2.74729       -6.23844       -4.02036
O          1.49884       -6.15154       -3.32881
C          1.72812       -6.65440       -2.00595
O          3.08803       -1.21244       -1.78331
H          1.40830       -0.42260        0.98634
H          0.10438        0.45371        0.16658
H          1.77327        0.60965       -0.40375
H          0.03289       -1.91214       -0.49555
H          0.43092       -0.90361       -1.88329
H          3.54800       -2.54755        0.50329
H          1.87271       -3.08350        0.86207
H          0.84967       -3.82674       -1.81262
H          2.25113       -3.47864       -2.87767
H          3.64578       -7.20977       -1.23750
H          4.71451       -6.56185       -3.18429
H          4.13481       -4.91411       -3.02896
H          2.76388       -5.52251       -4.84670
H          2.84424       -7.24949       -4.43150
H          1.58109       -7.74036       -2.03679
H          0.98600       -6.23483       -1.32071
H          3.88799       -1.76470       -1.84576

--Link1--
%chk=JID_4959.chk
%mem=8GB
%nprocshared=4
# B3LYP/6-311++G(d,p) empiricaldispersion=gd3bj scf=xqc pop=npa geom=check

CID_65950325_JID_4959_Energie_neutraal

0 1

--Link1--
%chk=JID_4959.chk
%mem=8GB
%nprocshared=4
# B3LYP/6-311++G(d,p) empiricaldispersion=gd3bj scf=xqc pop=npa geom=check

CID_65950325_JID_4959_Energie_kation

1 2

--Link1--
%chk=JID_4959.chk
%mem=8GB
%nprocshared=4
# B3LYP/6-311++G(d,p) empiricaldispersion=gd3bj scf=xqc pop=npa geom=check

CID_65950325_JID_4959_Energie_anion

-1 2
