%chk=JID_9739.chk
%mem=8GB
%nprocshared=4
# opt freq B3LYP/6-31G(d) empiricaldispersion=gd3bj scf=xqc

CID_152494704_JID_9739_neutraal

0 1
C          1.26600       -0.09700        0.26800
C          0.91349        0.92345       -0.79990
C         -0.60747        0.99722       -0.73337
C         -1.06262       -0.42235       -0.33927
C          0.20642       -1.17308        0.09124
O         -1.81949       -1.21801       -1.26185
C         -1.74926       -0.86108       -2.58045
C         -2.80550       -0.12505       -3.15555
C         -2.73605        0.23222       -4.52707
C         -3.72584        1.01190       -5.16455
C         -3.63312        1.34376       -6.51748
C         -2.54854        0.90324       -7.26568
C         -1.55515        0.13290       -6.66185
C         -1.63242       -0.20734       -5.30143
C         -0.62649       -0.98247       -4.70538
C         -0.68593       -1.31427       -3.35389
N         -3.89494        0.30413       -2.36152
N         -4.64078       -0.64292       -2.04216
N         -5.34439       -1.49194       -1.74881
H          1.18561        0.35313        1.26455
H          2.27992       -0.48995        0.15113
H          1.38258        1.89445       -0.61682
H          1.23474        0.56897       -1.78587
H         -1.03368        1.40355       -1.65174
H         -0.88244        1.68850        0.07422
H         -1.71456       -0.31982        0.53773
H          0.52097       -1.89918       -0.66523
H          0.04621       -1.73359        1.01837
H         -4.58339        1.37487       -4.60068
H         -4.40863        1.94696       -6.98245
H         -2.47317        1.15942       -8.31928
H         -0.71397       -0.20054       -7.26630
H          0.21696       -1.33762       -5.29449
H          0.09450       -1.92806       -2.91630

--Link1--
%chk=JID_9739.chk
%mem=8GB
%nprocshared=4
# B3LYP/6-311++G(d,p) empiricaldispersion=gd3bj scf=xqc pop=npa geom=check

CID_152494704_JID_9739_Energie_neutraal

0 1

--Link1--
%chk=JID_9739.chk
%mem=8GB
%nprocshared=4
# B3LYP/6-311++G(d,p) empiricaldispersion=gd3bj scf=xqc pop=npa geom=check

CID_152494704_JID_9739_Energie_kation

1 2

--Link1--
%chk=JID_9739.chk
%mem=8GB
%nprocshared=4
# B3LYP/6-311++G(d,p) empiricaldispersion=gd3bj scf=xqc pop=npa geom=check

CID_152494704_JID_9739_Energie_anion

-1 2
