%chk=JID_2479.chk
%mem=8GB
%nprocshared=4
# opt freq B3LYP/6-31G(d) empiricaldispersion=gd3bj scf=xqc

CID_65294831_JID_2479_neutraal

0 1
C          1.06231       -0.06736       -0.03975
C          1.25437       -1.01840       -1.20861
S          1.55179       -2.72344       -0.64984
C          3.23169       -2.66697       -0.24126
N          4.01972       -1.62215       -0.32798
N          5.26696       -1.99980        0.10348
C          5.21731       -3.27231        0.44250
N          3.94286       -3.74313        0.21712
C          3.46807       -5.09325        0.43560
C          3.36862       -5.92716       -0.84895
N          4.67082       -6.20458       -1.45843
C          6.34178       -4.07415        0.97765
H          0.21967       -0.37257        0.58993
H          0.84718        0.93950       -0.41295
H          1.95703       -0.00132        0.58707
H          0.34143       -1.02762       -1.81324
H          2.06581       -0.67935       -1.86058
H          4.13004       -5.58323        1.15810
H          2.48687       -5.02688        0.91907
H          2.89912       -6.88589       -0.60246
H          2.72913       -5.43598       -1.58941
H          4.53742       -6.80368       -2.27481
H          5.06882       -5.33761       -1.82746
H          6.57183       -4.91826        0.32212
H          7.24366       -3.45891        1.05838
H          6.10729       -4.45508        1.97620

--Link1--
%chk=JID_2479.chk
%mem=8GB
%nprocshared=4
# B3LYP/6-311++G(d,p) empiricaldispersion=gd3bj scf=xqc pop=npa geom=check

CID_65294831_JID_2479_Energie_neutraal

0 1

--Link1--
%chk=JID_2479.chk
%mem=8GB
%nprocshared=4
# B3LYP/6-311++G(d,p) empiricaldispersion=gd3bj scf=xqc pop=npa geom=check

CID_65294831_JID_2479_Energie_kation

1 2

--Link1--
%chk=JID_2479.chk
%mem=8GB
%nprocshared=4
# B3LYP/6-311++G(d,p) empiricaldispersion=gd3bj scf=xqc pop=npa geom=check

CID_65294831_JID_2479_Energie_anion

-1 2
