%chk=JID_2830.chk
%mem=8GB
%nprocshared=4
# opt freq B3LYP/6-31G(d) empiricaldispersion=gd3bj scf=xqc

CID_80560324_JID_2830_neutraal

0 1
C          1.04884       -0.08074        0.03310
C          0.87394       -0.52728       -1.40890
C          1.27403       -1.98453       -1.69505
C          0.42843       -3.10029       -1.03017
C         -1.06670       -2.92663       -1.32131
C          0.94643       -4.52003       -1.44891
C          2.36136       -4.86366       -0.85170
C          1.84995       -6.27754       -0.52807
C          0.41541       -5.72708       -0.58840
C          0.94154       -4.81568       -2.97214
N         -0.40248       -4.93377       -3.53038
O          0.60127       -2.96520        0.39155
H          0.29163       -0.52279        0.68606
H          0.93826        1.00654        0.10262
H          2.04101       -0.34357        0.41266
H         -0.15710       -0.34199       -1.72910
H          1.50471        0.11588       -2.03598
H          1.23853       -2.09831       -2.78373
H          2.32560       -2.10564       -1.40463
H         -1.26530       -2.76473       -2.38428
H         -1.63866       -3.80202       -0.99408
H         -1.47974       -2.07389       -0.77035
H          3.20489       -4.82242       -1.54818
H          2.64654       -4.30524        0.04739
H          2.15930       -6.67972        0.44038
H          2.07365       -7.02032       -1.30162
H          0.02396       -5.46771        0.40118
H         -0.31061       -6.39235       -1.06429
H          1.49250       -4.04592       -3.51970
H          1.46572       -5.75487       -3.18624
H         -0.33384       -5.07478       -4.53859
H         -0.85308       -5.77340       -3.16784
H         -0.15575       -3.38498        0.83326

--Link1--
%chk=JID_2830.chk
%mem=8GB
%nprocshared=4
# B3LYP/6-311++G(d,p) empiricaldispersion=gd3bj scf=xqc pop=npa geom=check

CID_80560324_JID_2830_Energie_neutraal

0 1

--Link1--
%chk=JID_2830.chk
%mem=8GB
%nprocshared=4
# B3LYP/6-311++G(d,p) empiricaldispersion=gd3bj scf=xqc pop=npa geom=check

CID_80560324_JID_2830_Energie_kation

1 2

--Link1--
%chk=JID_2830.chk
%mem=8GB
%nprocshared=4
# B3LYP/6-311++G(d,p) empiricaldispersion=gd3bj scf=xqc pop=npa geom=check

CID_80560324_JID_2830_Energie_anion

-1 2
