%chk=JID_2111.chk
%mem=8GB
%nprocshared=4
# opt freq B3LYP/6-31G(d) empiricaldispersion=gd3bj scf=xqc

CID_143941468_JID_2111_neutraal

0 1
C          0.93927        0.04874       -0.06274
C          0.94503        1.30972       -0.89684
C          0.48659       -2.82914       -3.43757
C         -0.32322       -3.73607       -2.50776
C          0.40266       -3.84985       -1.16170
C         -1.81404       -3.31768       -2.38865
C         -2.64463       -4.42191       -1.70681
O         -3.86076       -3.81891       -1.27164
S         -3.56169       -2.33002       -0.73130
O         -4.67043       -1.45026       -1.21812
N         -2.12145       -2.11805       -1.58343
C         -2.01996       -0.88425       -2.36427
H         -0.07330       -0.35528        0.01988
H          1.30869        0.25480        0.94628
H          1.58220       -0.71177       -0.51509
H          1.95681        1.72058       -0.96432
H          0.59038        1.10299       -1.91072
H          0.29413        2.06808       -0.45181
H          0.75393       -1.88328       -2.95805
H         -0.05989       -2.61705       -4.36190
H          1.42673       -3.31884       -3.71639
H         -0.31113       -4.73524       -2.96528
H          0.38126       -2.90508       -0.61122
H         -0.03757       -4.62245       -0.52587
H          1.45320       -4.12258       -1.31296
H         -2.23502       -3.19162       -3.39693
H         -2.88309       -5.22507       -2.41159
H         -2.15727       -4.86702       -0.83353
H         -2.73492       -0.86452       -3.19507
H         -2.21729       -0.01237       -1.72905
H         -1.02010       -0.73398       -2.77176

--Link1--
%chk=JID_2111.chk
%mem=8GB
%nprocshared=4
# B3LYP/6-311++G(d,p) empiricaldispersion=gd3bj scf=xqc pop=npa geom=check

CID_143941468_JID_2111_Energie_neutraal

0 1

--Link1--
%chk=JID_2111.chk
%mem=8GB
%nprocshared=4
# B3LYP/6-311++G(d,p) empiricaldispersion=gd3bj scf=xqc pop=npa geom=check

CID_143941468_JID_2111_Energie_kation

1 2

--Link1--
%chk=JID_2111.chk
%mem=8GB
%nprocshared=4
# B3LYP/6-311++G(d,p) empiricaldispersion=gd3bj scf=xqc pop=npa geom=check

CID_143941468_JID_2111_Energie_anion

-1 2
