%chk=JID_5081.chk
%mem=8GB
%nprocshared=4
# opt freq B3LYP/6-31G(d) empiricaldispersion=gd3bj scf=xqc

CID_101345138_JID_5081_neutraal

0 1
C          0.99752       -0.06343        0.07727
C          0.76119        0.53791        1.46670
C         -0.73053        0.93829        1.58367
C         -1.00708        1.77296        2.83079
N         -0.06845        2.86931        2.91674
C         -0.37128        4.16657        3.29896
O         -1.44471        4.59725        3.68739
C          0.87425        5.00202        3.03332
C          2.00056        3.95398        2.94111
C          1.23423        2.72942        2.53809
C          1.68644        1.70171        1.80677
C          3.09718        1.73618        1.26083
C          3.92903        2.98204        1.63249
C          3.07554        4.23657        1.88458
C          2.62426        3.75625        4.33876
H          0.88154        0.68933       -0.71034
H          0.28477       -0.87151       -0.12121
H          2.00200       -0.49192       -0.00487
H          0.96145       -0.25087        2.20482
H         -1.01810        1.52587        0.70079
H         -1.36317        0.04285        1.58883
H         -2.03124        2.16052        2.82002
H         -0.88847        1.16558        3.73574
H          1.02913        5.72027        3.84379
H          0.72975        5.53968        2.08968
H          3.03950        1.70821        0.16567
H          3.63939        0.83710        1.57606
H          4.65210        3.18562        0.83338
H          4.52802        2.75864        2.52327
H          2.61129        4.54206        0.93737
H          3.71865        5.06633        2.20077
H          3.28422        2.88342        4.38009
H          3.21061        4.63584        4.62768
H          1.85692        3.60699        5.10817

--Link1--
%chk=JID_5081.chk
%mem=8GB
%nprocshared=4
# B3LYP/6-311++G(d,p) empiricaldispersion=gd3bj scf=xqc pop=npa geom=check

CID_101345138_JID_5081_Energie_neutraal

0 1

--Link1--
%chk=JID_5081.chk
%mem=8GB
%nprocshared=4
# B3LYP/6-311++G(d,p) empiricaldispersion=gd3bj scf=xqc pop=npa geom=check

CID_101345138_JID_5081_Energie_kation

1 2

--Link1--
%chk=JID_5081.chk
%mem=8GB
%nprocshared=4
# B3LYP/6-311++G(d,p) empiricaldispersion=gd3bj scf=xqc pop=npa geom=check

CID_101345138_JID_5081_Energie_anion

-1 2
