%chk=JID_7538.chk
%mem=8GB
%nprocshared=4
# opt freq B3LYP/6-31G(d) empiricaldispersion=gd3bj scf=xqc

CID_116707974_JID_7538_neutraal

0 1
C          0.96542       -0.06992        0.06257
C          0.63334        0.78348       -1.15298
C          0.83201        0.06254       -2.49204
C          0.02646       -1.22786       -2.74657
C         -1.45365       -1.01246       -3.17565
O         -1.86925       -1.34460       -4.28664
C         -2.41369       -0.40775       -2.15034
C         -2.78135        1.02647       -2.53572
C         -3.95157        1.11619       -3.50709
C         -5.16760        0.37313       -2.96991
C         -4.88740       -1.11559       -2.71810
C         -3.62563       -1.30616       -1.85204
C         -4.92398       -1.90964       -4.03967
C         -4.72957       -3.40966       -3.87030
O          0.70926       -2.13699       -3.62615
C          1.40681       -1.64415       -4.76754
C          0.54052       -1.03021       -5.84985
H          0.24477       -0.88145        0.19545
H          0.93938        0.54383        0.96887
H          1.96663       -0.50377       -0.02280
H         -0.37730        1.18552       -1.06000
H          1.29787        1.65705       -1.14386
H          0.62640        0.77938       -3.29646
H          1.90301       -0.16619       -2.55158
H         -0.04215       -1.79768       -1.81407
H         -1.85315       -0.37110       -1.21029
H         -3.04717        1.57480       -1.62262
H         -1.91887        1.54567       -2.97017
H         -3.66180        0.72173       -4.48698
H         -4.21033        2.17034       -3.66107
H         -6.00771        0.49188       -3.66449
H         -5.47994        0.84039       -2.02687
H         -5.73099       -1.49876       -2.12546
H         -3.32018       -2.35713       -1.82275
H         -3.93131       -1.07177       -0.82131
H         -5.90665       -1.75462       -4.50470
H         -4.19636       -1.52884       -4.75967
H         -5.41415       -3.81365       -3.11785
H         -4.92924       -3.92184       -4.81724
H         -3.70446       -3.65332       -3.57792
H          2.20107       -0.95228       -4.47357
H          1.91912       -2.51057       -5.20112
H          0.04187       -0.12231       -5.50016
H          1.15056       -0.76152       -6.71793
H         -0.22811       -1.73570       -6.17926

--Link1--
%chk=JID_7538.chk
%mem=8GB
%nprocshared=4
# B3LYP/6-311++G(d,p) empiricaldispersion=gd3bj scf=xqc pop=npa geom=check

CID_116707974_JID_7538_Energie_neutraal

0 1

--Link1--
%chk=JID_7538.chk
%mem=8GB
%nprocshared=4
# B3LYP/6-311++G(d,p) empiricaldispersion=gd3bj scf=xqc pop=npa geom=check

CID_116707974_JID_7538_Energie_kation

1 2

--Link1--
%chk=JID_7538.chk
%mem=8GB
%nprocshared=4
# B3LYP/6-311++G(d,p) empiricaldispersion=gd3bj scf=xqc pop=npa geom=check

CID_116707974_JID_7538_Energie_anion

-1 2
