%chk=JID_9429.chk
%mem=8GB
%nprocshared=4
# opt freq B3LYP/6-31G(d) empiricaldispersion=gd3bj scf=xqc

CID_80147492_JID_9429_neutraal

0 1
C         -1.12400       -0.00100       -1.50100
C         -0.59614       -0.06786       -0.05458
C          0.20877        1.20303        0.29134
C          1.55999        1.26642       -0.42860
N          2.35326        0.06722       -0.15898
C          1.66425       -1.15906       -0.57736
C          0.31572       -1.29853        0.13743
C          3.72782        0.14182       -0.69485
C          3.87740        0.21718       -2.20759
N          3.92382       -0.95578       -2.89357
C          4.03620       -0.89066       -4.24295
C          4.07196        0.29873       -4.95224
C          4.05252        1.49552       -4.23877
C          3.95068        1.45530       -2.84882
C          4.18021        0.24670       -6.42094
O          4.98269       -0.52533       -6.93767
N          3.36886        1.06091       -7.19909
N          2.14860        1.61477       -6.76415
C         -1.80592       -0.17784        0.89011
H         -1.78020        0.86616       -1.63781
H         -0.32137        0.07850       -2.23962
H         -1.70544       -0.89707       -1.74653
H         -0.37343        2.10070        0.04803
H          0.39094        1.23807        1.37443
H          2.09359        2.15251       -0.06343
H          1.39645        1.41091       -1.50234
H          2.27279       -2.03424       -0.31824
H          1.50753       -1.18553       -1.66152
H          0.50571       -1.45017        1.20907
H         -0.18943       -2.20585       -0.21695
H          4.24305        0.99893       -0.24138
H          4.29094       -0.73286       -0.34269
H          4.08751       -1.85192       -4.74833
H          4.13711        2.45030       -4.74865
H          3.92997        2.37686       -2.27497
H          3.48012        0.89993       -8.20127
H          1.68775        0.97976       -6.10722
H          2.32904        2.48702       -6.26509
H         -1.48972       -0.22910        1.93805
H         -2.46892        0.68841        0.78566
H         -2.39347       -1.07787        0.67657

--Link1--
%chk=JID_9429.chk
%mem=8GB
%nprocshared=4
# B3LYP/6-311++G(d,p) empiricaldispersion=gd3bj scf=xqc pop=npa geom=check

CID_80147492_JID_9429_Energie_neutraal

0 1

--Link1--
%chk=JID_9429.chk
%mem=8GB
%nprocshared=4
# B3LYP/6-311++G(d,p) empiricaldispersion=gd3bj scf=xqc pop=npa geom=check

CID_80147492_JID_9429_Energie_kation

1 2

--Link1--
%chk=JID_9429.chk
%mem=8GB
%nprocshared=4
# B3LYP/6-311++G(d,p) empiricaldispersion=gd3bj scf=xqc pop=npa geom=check

CID_80147492_JID_9429_Energie_anion

-1 2
