%chk=JID_8936.chk
%mem=8GB
%nprocshared=4
# opt freq B3LYP/6-31G(d) empiricaldispersion=gd3bj scf=xqc

CID_55073379_JID_8936_neutraal

0 1
C          1.05804        0.06620        0.04742
C          1.08109       -1.03582        1.09524
C          0.65141       -0.55764        2.44646
N         -0.02057        0.54895        2.70032
C         -0.24630        0.56018        4.04998
C          0.30421       -0.54952        4.64005
N          0.89123       -1.24394        3.61740
C          1.63445       -2.48282        3.77047
C          3.13561       -2.25048        3.89549
N          3.50418       -1.74803        5.19961
C          3.65658       -0.45497        5.59297
C          3.92093       -0.55101        6.94387
N          3.96665       -1.87833        7.29379
N          3.71173       -2.60252        6.21247
C          4.12935        0.52817        7.94820
N          2.82142        1.01746        8.38977
C          2.92581        2.10211        9.36099
C          3.18659        3.45305        8.70948
H          0.04916        0.47298       -0.08073
H          1.38946       -0.32430       -0.92004
H          1.72214        0.89127        0.32681
H          0.41667       -1.84822        0.77915
H          2.09670       -1.44270        1.14493
H         -0.79419        1.36448        4.52342
H          0.33377       -0.88217        5.66955
H          1.22862       -3.00866        4.64296
H          1.41754       -3.09961        2.89149
H          3.67454       -3.19431        3.75264
H          3.50807       -1.53974        3.14954
H          3.52889        0.38735        4.92886
H          4.69460        0.12880        8.79806
H          4.72172        1.32995        7.49363
H          2.27679        1.31649        7.58285
H          1.97242        2.16045        9.89833
H          3.69073        1.88633       10.11609
H          2.40524        3.69685        7.98160
H          3.19116        4.24046        9.47019
H          4.15311        3.47757        8.19742

--Link1--
%chk=JID_8936.chk
%mem=8GB
%nprocshared=4
# B3LYP/6-311++G(d,p) empiricaldispersion=gd3bj scf=xqc pop=npa geom=check

CID_55073379_JID_8936_Energie_neutraal

0 1

--Link1--
%chk=JID_8936.chk
%mem=8GB
%nprocshared=4
# B3LYP/6-311++G(d,p) empiricaldispersion=gd3bj scf=xqc pop=npa geom=check

CID_55073379_JID_8936_Energie_kation

1 2

--Link1--
%chk=JID_8936.chk
%mem=8GB
%nprocshared=4
# B3LYP/6-311++G(d,p) empiricaldispersion=gd3bj scf=xqc pop=npa geom=check

CID_55073379_JID_8936_Energie_anion

-1 2
