%chk=JID_10821.chk
%mem=8GB
%nprocshared=4
# opt freq B3LYP/6-31G(d) empiricaldispersion=gd3bj scf=xqc

CID_2340452_JID_10821_neutraal

0 1
C          0.92672       -0.04845       -0.04778
C          0.17711        0.29013        1.01493
C         -1.27236       -0.05655        1.01594
C         -2.06713        0.24881       -0.10347
C         -3.42996       -0.06097       -0.12796
C         -4.02575       -0.67431        0.97109
C         -3.26446       -0.96979        2.10073
C         -1.90261       -0.65571        2.12181
O         -1.17422       -0.92455        3.25340
N          0.64485        0.96205        2.13614
N          2.00873        1.01290        2.45691
C          2.79331        2.08922        2.17809
O          3.99780        1.92305        1.96970
N          2.30572        3.34839        2.16209
C          0.97144        3.87944        2.42657
C          1.06744        5.19569        3.21601
C          1.57505        6.36884        2.37808
C          0.76413        6.54088        1.09892
C          0.71375        5.25076        0.28888
C          0.18875        4.08075        1.12087
H          0.52108       -0.58862       -0.89624
H          1.97981        0.20669       -0.09920
H         -1.62858        0.74532       -0.96690
H         -4.02462        0.18305       -1.00489
H         -5.08633       -0.91253        0.95070
H         -3.74880       -1.43239        2.95531
H         -1.71326       -1.47796        3.84338
H          0.06545        0.74809        2.95554
H          2.49072        0.12427        2.36281
H          3.01871        4.00731        1.88192
H          0.43890        3.16871        3.06405
H          0.07028        5.44832        3.59936
H          1.71799        5.06619        4.08949
H          2.63104        6.21777        2.12490
H          1.52387        7.28957        2.97052
H          1.19939        7.34192        0.49090
H         -0.25664        6.85205        1.35306
H          1.71569        5.01548       -0.09012
H          0.07039        5.39338       -0.58695
H          0.21480        3.17665        0.50479
H         -0.86472        4.26757        1.36536

--Link1--
%chk=JID_10821.chk
%mem=8GB
%nprocshared=4
# B3LYP/6-311++G(d,p) empiricaldispersion=gd3bj scf=xqc pop=npa geom=check

CID_2340452_JID_10821_Energie_neutraal

0 1

--Link1--
%chk=JID_10821.chk
%mem=8GB
%nprocshared=4
# B3LYP/6-311++G(d,p) empiricaldispersion=gd3bj scf=xqc pop=npa geom=check

CID_2340452_JID_10821_Energie_kation

1 2

--Link1--
%chk=JID_10821.chk
%mem=8GB
%nprocshared=4
# B3LYP/6-311++G(d,p) empiricaldispersion=gd3bj scf=xqc pop=npa geom=check

CID_2340452_JID_10821_Energie_anion

-1 2
