%chk=JID_8201.chk
%mem=8GB
%nprocshared=4
# opt freq B3LYP/6-31G(d) empiricaldispersion=gd3bj scf=xqc

CID_108409431_JID_8201_neutraal

0 1
C          1.09882        0.01387       -0.00647
C          1.12181        0.90835        1.22359
C          1.47035        2.36648        0.91401
C          0.54399        3.06900       -0.08334
C         -0.94011        3.07935        0.29413
C         -1.27680        3.78474        1.61197
C         -0.89299        5.26686        1.68347
C         -1.45482        6.15246        0.56529
C         -2.97848        6.09905        0.37874
C         -3.77082        6.63630        1.56826
C         -5.30383        6.56125        1.49692
C         -5.65607        7.62233        2.53240
C         -4.60667        8.68854        2.30128
O         -3.45119        8.02786        1.77045
C         -5.94332        6.90289        0.13483
N         -5.99964        5.73099       -0.74341
C         -6.70939        5.99304       -1.99608
C         -5.88851        6.80302       -2.99004
H          0.28657        0.28501       -0.68702
H          0.94620       -1.02864        0.29092
H          2.04488        0.07445       -0.55362
H          0.15609        0.84786        1.73716
H          1.86857        0.51765        1.92549
H          1.49024        2.92964        1.85448
H          2.49293        2.40708        0.51766
H          0.89601        4.09834       -0.21920
H          0.64719        2.59366       -1.06630
H         -1.49997        3.54593       -0.52460
H         -1.31162        2.04937        0.34778
H         -2.35377        3.68344        1.79288
H         -0.79151        3.25934        2.44302
H         -1.21482        5.66115        2.65472
H          0.19999        5.35770        1.67943
H         -1.14585        7.18805        0.75349
H         -0.98296        5.87110       -0.38389
H         -3.20129        6.70469       -0.50811
H         -3.28447        5.07163        0.16100
H         -3.45345        6.11276        2.47897
H         -5.66175        5.57788        1.82588
H         -6.67642        8.01041        2.46555
H         -5.53062        7.20218        3.53850
H         -4.93989        9.42541        1.56327
H         -4.33863        9.21592        3.22120
H         -6.97118        7.24456        0.30857
H         -5.40188        7.72634       -0.34345
H         -5.06357        5.39614       -0.95862
H         -6.94039        5.02383       -2.45286
H         -7.67300        6.48006       -1.80743
H         -4.92621        6.32133       -3.19383
H         -6.42782        6.88672       -3.93923
H         -5.69608        7.81687       -2.62670

--Link1--
%chk=JID_8201.chk
%mem=8GB
%nprocshared=4
# B3LYP/6-311++G(d,p) empiricaldispersion=gd3bj scf=xqc pop=npa geom=check

CID_108409431_JID_8201_Energie_neutraal

0 1

--Link1--
%chk=JID_8201.chk
%mem=8GB
%nprocshared=4
# B3LYP/6-311++G(d,p) empiricaldispersion=gd3bj scf=xqc pop=npa geom=check

CID_108409431_JID_8201_Energie_kation

1 2

--Link1--
%chk=JID_8201.chk
%mem=8GB
%nprocshared=4
# B3LYP/6-311++G(d,p) empiricaldispersion=gd3bj scf=xqc pop=npa geom=check

CID_108409431_JID_8201_Energie_anion

-1 2
