%chk=JID_6059.chk
%mem=8GB
%nprocshared=4
# opt freq B3LYP/6-31G(d) empiricaldispersion=gd3bj scf=xqc

CID_106556902_JID_6059_neutraal

0 1
C          0.91227        0.03991       -0.02666
C          1.02725        1.02280       -1.18033
C          0.92675        0.36526       -2.55878
C         -0.39929       -0.34159       -2.86375
C         -1.63160        0.56755       -2.90538
N         -1.60874        1.53126       -3.98829
C         -1.83603        1.21352       -5.30409
C         -1.64104        2.38478       -5.99071
N         -1.32358        3.39996       -5.13035
C         -1.33795        2.88171       -3.92331
N         -1.11000        3.50980       -2.74743
C         -0.84199        4.93866       -2.67218
C          0.38392        5.40141       -3.47225
C         -0.09833        6.58030       -4.31504
C         -1.33416        7.09259       -3.59099
C         -2.01279        5.81607       -3.11783
H         -0.08716       -0.40182        0.02485
H          1.09649        0.55240        0.92308
H          1.64470       -0.76771       -0.12285
H          0.26857        1.80140       -1.06473
H          1.99939        1.52590       -1.11103
H          1.12167        1.12418       -3.32564
H          1.73498       -0.37131       -2.65270
H         -0.29563       -0.85119       -3.83040
H         -0.57123       -1.13309       -2.12542
H         -2.52715       -0.04734       -3.06086
H         -1.77875        1.08559       -1.95478
H         -2.08611        0.21372       -5.62893
H         -1.70911        2.55184       -7.05727
H         -1.53272        3.14131       -1.90498
H         -0.63879        5.16300       -1.61612
H          1.16121        5.74167       -2.77672
H          0.84075        4.62638       -4.09540
H         -0.37015        6.23346       -5.31887
H          0.66945        7.35228       -4.42208
H         -1.97888        7.69151       -4.24022
H         -1.04299        7.70848       -2.73177
H         -2.58201        5.37159       -3.94133
H         -2.71665        6.00451       -2.30084

--Link1--
%chk=JID_6059.chk
%mem=8GB
%nprocshared=4
# B3LYP/6-311++G(d,p) empiricaldispersion=gd3bj scf=xqc pop=npa geom=check

CID_106556902_JID_6059_Energie_neutraal

0 1

--Link1--
%chk=JID_6059.chk
%mem=8GB
%nprocshared=4
# B3LYP/6-311++G(d,p) empiricaldispersion=gd3bj scf=xqc pop=npa geom=check

CID_106556902_JID_6059_Energie_kation

1 2

--Link1--
%chk=JID_6059.chk
%mem=8GB
%nprocshared=4
# B3LYP/6-311++G(d,p) empiricaldispersion=gd3bj scf=xqc pop=npa geom=check

CID_106556902_JID_6059_Energie_anion

-1 2
