%chk=JID_8425.chk
%mem=8GB
%nprocshared=4
# opt freq B3LYP/6-31G(d) empiricaldispersion=gd3bj scf=xqc

CID_107048192_JID_8425_neutraal

0 1
C          2.13400        0.09700        0.02900
N          0.73072       -0.03568       -0.25025
N         -0.03930       -0.97355        0.33637
C         -1.20614       -0.71864       -0.27364
N         -1.13916        0.30398       -1.17854
N          0.11476        0.73447       -1.16149
C         -2.44380       -1.48058       -0.01220
C         -2.77720       -2.50692       -1.10793
C         -1.69054       -3.61492       -1.32915
C         -1.47079       -4.57910       -0.11714
C         -2.38083       -5.82192       -0.05032
C         -1.95308       -6.99854       -0.92926
C         -0.48114       -7.34842       -0.76070
C          0.40749       -6.12744       -0.95268
C          0.00959       -5.00868        0.00247
O         -1.78410       -4.34000       -2.56566
C         -3.06773       -4.49440       -3.15056
O         -4.06348       -3.07266       -0.80549
H          2.35688       -0.37596        0.98859
H          2.68995       -0.39417       -0.77288
H          2.38564        1.15940        0.07422
H         -2.40012       -1.96217        0.97140
H         -3.28018       -0.77319        0.06816
H         -2.90364       -1.96209       -2.05130
H         -0.75149       -3.06484       -1.45742
H         -1.67028       -3.99698        0.79016
H         -2.37817       -6.17557        0.99027
H         -3.42103       -5.56386       -0.26654
H         -2.15107       -6.78448       -1.98291
H         -2.56387       -7.87426       -0.67927
H         -0.20177       -8.12736       -1.47907
H         -0.31806       -7.76630        0.24046
H          0.35079       -5.78026       -1.99015
H          1.45172       -6.40675       -0.77093
H          0.67373       -4.14799       -0.13929
H          0.18517       -5.35492        1.03021
H         -3.77679       -4.95601       -2.46087
H         -3.44864       -3.53900       -3.51989
H         -2.96194       -5.15880       -4.01335
H         -4.01361       -3.49645        0.06842

--Link1--
%chk=JID_8425.chk
%mem=8GB
%nprocshared=4
# B3LYP/6-311++G(d,p) empiricaldispersion=gd3bj scf=xqc pop=npa geom=check

CID_107048192_JID_8425_Energie_neutraal

0 1

--Link1--
%chk=JID_8425.chk
%mem=8GB
%nprocshared=4
# B3LYP/6-311++G(d,p) empiricaldispersion=gd3bj scf=xqc pop=npa geom=check

CID_107048192_JID_8425_Energie_kation

1 2

--Link1--
%chk=JID_8425.chk
%mem=8GB
%nprocshared=4
# B3LYP/6-311++G(d,p) empiricaldispersion=gd3bj scf=xqc pop=npa geom=check

CID_107048192_JID_8425_Energie_anion

-1 2
