%chk=JID_8356.chk
%mem=8GB
%nprocshared=4
# opt freq B3LYP/6-31G(d) empiricaldispersion=gd3bj scf=xqc

CID_80895608_JID_8356_neutraal

0 1
C          0.97480        0.00047       -0.09677
C         -0.17982        0.96776       -0.31127
C         -0.25003        1.56397       -1.72250
N         -0.92573        0.66262       -2.67109
C         -1.73138        1.31802       -3.73083
C         -0.99374        2.40063       -4.53934
O          0.00429        1.85669       -5.39493
C         -0.12663       -0.37820       -3.17407
N          1.09222       -0.04092       -3.63919
C          1.85240       -1.03497       -4.10269
N          1.50424       -2.31694       -4.17732
C          0.26881       -2.64008       -3.73453
C         -0.60794       -1.69644       -3.18982
C         -1.96399       -2.03038       -2.58005
C         -3.01858       -2.39542       -3.62884
C         -1.89501       -3.08338       -1.46744
N         -0.09316       -4.01469       -3.81135
N          0.90117       -4.90950       -4.30085
H          0.83401       -0.93193       -0.64771
H          1.05120       -0.25861        0.96440
H          1.92593        0.44673       -0.40352
H         -1.12507        0.47539       -0.05401
H         -0.05013        1.79493        0.39786
H         -0.85471        2.47630       -1.63346
H          0.73787        1.88866       -2.07165
H         -2.13458        0.56508       -4.41879
H         -2.59424        1.78490       -3.24048
H         -1.71301        2.92343       -5.17795
H         -0.52323        3.14916       -3.89543
H          0.57318        1.30209       -4.81970
H          2.84210       -0.77226       -4.45941
H         -2.35214       -1.13641       -2.07768
H         -2.83941       -3.37037       -4.08814
H         -4.01159       -2.43768       -3.16711
H         -3.05679       -1.65092       -4.43054
H         -1.11659       -2.83439       -0.73796
H         -2.85017       -3.12977       -0.93197
H         -1.69565       -4.08899       -1.84726
H         -0.98074       -4.09748       -4.30718
H          1.40708       -4.43577       -5.06055
H          1.62142       -5.00271       -3.57725

--Link1--
%chk=JID_8356.chk
%mem=8GB
%nprocshared=4
# B3LYP/6-311++G(d,p) empiricaldispersion=gd3bj scf=xqc pop=npa geom=check

CID_80895608_JID_8356_Energie_neutraal

0 1

--Link1--
%chk=JID_8356.chk
%mem=8GB
%nprocshared=4
# B3LYP/6-311++G(d,p) empiricaldispersion=gd3bj scf=xqc pop=npa geom=check

CID_80895608_JID_8356_Energie_kation

1 2

--Link1--
%chk=JID_8356.chk
%mem=8GB
%nprocshared=4
# B3LYP/6-311++G(d,p) empiricaldispersion=gd3bj scf=xqc pop=npa geom=check

CID_80895608_JID_8356_Energie_anion

-1 2
