%chk=JID_3739.chk
%mem=8GB
%nprocshared=4
# opt freq B3LYP/6-31G(d) empiricaldispersion=gd3bj scf=xqc

CID_58422390_JID_3739_neutraal

0 1
C          0.94790        0.08440       -0.01272
C          0.46990       -1.35981       -0.11483
C          0.71951       -2.20584        1.13448
S         -0.00946       -1.58232        2.63379
O         -1.28125       -0.95909        2.33230
O          0.11659       -2.59672        3.65944
O          1.08157       -0.41509        2.95097
C          0.85481        0.38296        4.09813
N         -0.93354       -1.39587       -0.53256
C         -1.51810       -2.11139       -1.53353
O         -2.72640       -2.32127       -1.53420
C         -0.67763       -2.66878       -2.61368
C          0.11556       -1.89479       -3.36578
H          0.32587        0.67751        0.66491
H          0.89630        0.57180       -0.99295
H          1.98662        0.13250        0.32913
H          1.06908       -1.83215       -0.89876
H          0.30193       -3.20981        0.99337
H          1.79209       -2.32138        1.32566
H         -0.09051        0.92553        4.00578
H          0.84516       -0.23581        5.00003
H          1.66716        1.10970        4.18124
H         -1.62175       -1.06335        0.14399
H         -0.83905       -3.71521       -2.84387
H          0.66757       -2.31570       -4.19960
H          0.20687       -0.82768       -3.18782

--Link1--
%chk=JID_3739.chk
%mem=8GB
%nprocshared=4
# B3LYP/6-311++G(d,p) empiricaldispersion=gd3bj scf=xqc pop=npa geom=check

CID_58422390_JID_3739_Energie_neutraal

0 1

--Link1--
%chk=JID_3739.chk
%mem=8GB
%nprocshared=4
# B3LYP/6-311++G(d,p) empiricaldispersion=gd3bj scf=xqc pop=npa geom=check

CID_58422390_JID_3739_Energie_kation

1 2

--Link1--
%chk=JID_3739.chk
%mem=8GB
%nprocshared=4
# B3LYP/6-311++G(d,p) empiricaldispersion=gd3bj scf=xqc pop=npa geom=check

CID_58422390_JID_3739_Energie_anion

-1 2
