%chk=JID_5900.chk
%mem=8GB
%nprocshared=4
# opt freq B3LYP/6-31G(d) empiricaldispersion=gd3bj scf=xqc

CID_102412939_JID_5900_neutraal

0 1
C          0.98462        0.01679        0.09737
C          0.98493       -0.59829       -1.29463
C          1.22419       -2.11080       -1.29589
C          0.22705       -2.93469       -0.47517
C         -1.23817       -2.79476       -0.89849
C         -1.56346       -3.30424       -2.30716
C         -1.26588       -4.78940       -2.55819
C         -1.95702       -5.76814       -1.60061
C         -3.43939       -5.74896       -1.69740
C         -4.35559       -5.14714       -0.93093
C         -5.70960       -5.39825       -1.35979
C         -6.79979       -4.86807       -0.79610
C         -5.69413       -6.33162       -2.53809
C         -4.20637       -6.50449       -2.71025
O         -3.67774       -7.19093       -3.57306
H          0.12947       -0.32452        0.68790
H          0.92089        1.10735        0.02517
H          1.90297       -0.23351        0.63771
H          0.04214       -0.36093       -1.79948
H          1.77797       -0.12396       -1.88553
H          1.22957       -2.46558       -2.33317
H          2.23121       -2.30564       -0.90556
H          0.52546       -3.98851       -0.51814
H          0.31110       -2.65295        0.58119
H         -1.85911       -3.32300       -0.16663
H         -1.54355       -1.74438       -0.82914
H         -2.62445       -3.11107       -2.50716
H         -1.01248       -2.70991       -3.04577
H         -1.55436       -5.02790       -3.59020
H         -0.18325       -4.95474       -2.50575
H         -1.59946       -6.78250       -1.81804
H         -1.64656       -5.56795       -0.56875
H         -4.11803       -4.52030       -0.08135
H         -6.73527       -4.19135        0.05066
H         -7.79245       -5.09514       -1.17343
H         -6.15473       -7.29399       -2.30066
H         -6.12392       -5.87354       -3.43199

--Link1--
%chk=JID_5900.chk
%mem=8GB
%nprocshared=4
# B3LYP/6-311++G(d,p) empiricaldispersion=gd3bj scf=xqc pop=npa geom=check

CID_102412939_JID_5900_Energie_neutraal

0 1

--Link1--
%chk=JID_5900.chk
%mem=8GB
%nprocshared=4
# B3LYP/6-311++G(d,p) empiricaldispersion=gd3bj scf=xqc pop=npa geom=check

CID_102412939_JID_5900_Energie_kation

1 2

--Link1--
%chk=JID_5900.chk
%mem=8GB
%nprocshared=4
# B3LYP/6-311++G(d,p) empiricaldispersion=gd3bj scf=xqc pop=npa geom=check

CID_102412939_JID_5900_Energie_anion

-1 2
