%chk=JID_9362.chk
%mem=8GB
%nprocshared=4
# opt freq B3LYP/6-31G(d) empiricaldispersion=gd3bj scf=xqc

CID_138033507_JID_9362_neutraal

0 1
C          1.04279        0.06260        0.06519
N          0.44384        1.09791       -0.77002
C         -0.40014        0.63339       -1.88519
C         -1.90849        0.62898       -1.61158
C         -2.36824       -0.09336       -0.34480
C         -3.82812        0.33618       -0.16951
C         -4.03422        1.55624       -1.07649
C         -2.62992        1.97617       -1.50561
O         -2.10542        2.81301       -0.48630
C          1.09328        2.31733       -0.93527
N          0.51251        3.21411       -1.75227
C          1.10073        4.42156       -1.90564
N          2.22851        4.82022       -1.28919
C          2.77132        3.91845       -0.46192
C          2.24272        2.66263       -0.24606
C          0.41176        5.37611       -2.84221
O         -0.56883        5.09858       -3.51998
O          1.02943        6.59109       -2.82385
C          0.41558        7.56806       -3.66318
H          0.39479       -0.81827        0.12929
H          1.18622        0.41741        1.09160
H          2.00364       -0.26696       -0.34548
H         -0.20651        1.18871       -2.81237
H         -0.10540       -0.39719       -2.12896
H         -2.35928        0.09982       -2.46596
H         -1.79619        0.22591        0.53316
H         -2.27281       -1.18022       -0.43134
H         -4.03137        0.58204        0.87837
H         -4.51339       -0.46900       -0.45623
H         -4.57563        2.35032       -0.55240
H         -4.62209        1.25811       -1.95271
H         -2.63963        2.53051       -2.44901
H         -1.18080        2.98923       -0.74663
H          3.67596        4.23835        0.04791
H          2.73772        1.99374        0.44361
H          0.45561        7.25342       -4.71065
H         -0.61812        7.74795       -3.35115
H          0.97425        8.50248       -3.56073

--Link1--
%chk=JID_9362.chk
%mem=8GB
%nprocshared=4
# B3LYP/6-311++G(d,p) empiricaldispersion=gd3bj scf=xqc pop=npa geom=check

CID_138033507_JID_9362_Energie_neutraal

0 1

--Link1--
%chk=JID_9362.chk
%mem=8GB
%nprocshared=4
# B3LYP/6-311++G(d,p) empiricaldispersion=gd3bj scf=xqc pop=npa geom=check

CID_138033507_JID_9362_Energie_kation

1 2

--Link1--
%chk=JID_9362.chk
%mem=8GB
%nprocshared=4
# B3LYP/6-311++G(d,p) empiricaldispersion=gd3bj scf=xqc pop=npa geom=check

CID_138033507_JID_9362_Energie_anion

-1 2
