%chk=JID_10819.chk
%mem=8GB
%nprocshared=4
# opt freq B3LYP/6-31G(d) empiricaldispersion=gd3bj scf=xqc

CID_45358479_JID_10819_neutraal

0 1
C          1.09733        0.01784       -0.01446
C          1.57308       -1.40646       -0.22655
O          2.87623       -1.51371        0.35517
C          3.92592       -1.38254       -0.48339
O          3.88478       -1.38904       -1.70426
C          5.15891       -1.07876        0.27663
C          5.34826       -0.95969        1.60429
C          6.73376       -0.44454        1.90518
C          7.47035       -0.63237        0.57774
C          6.39113       -0.72994       -0.50062
S          6.69939        1.25748        2.48355
O          5.81110        1.35073        3.62930
O          8.07713        1.70139        2.61462
C          5.96640        2.22777        1.18019
C          6.79048        2.89690        0.26977
C          6.21487        3.65385       -0.75066
C          4.82643        3.75484       -0.84814
C          4.00821        3.11360        0.08299
C          4.57575        2.35661        1.10813
C          4.40473       -1.25282        2.72474
H          1.11932        0.27920        1.04884
H          0.07805        0.14740       -0.38884
H          1.75266        0.72659       -0.53097
H          0.91686       -2.10563        0.30112
H          1.56041       -1.67692       -1.28796
H          7.21922       -1.03066        2.69307
H          8.20090        0.15078        0.35465
H          8.02341       -1.58103        0.60697
H          6.64897       -1.50222       -1.23272
H          6.26214        0.21945       -1.02914
H          7.87395        2.83694        0.34501
H          6.84788        4.17173       -1.46753
H          4.38088        4.34665       -1.64470
H          2.92739        3.21141        0.01202
H          3.92943        1.87623        1.83879
H          4.95505       -1.45575        3.64940
H          3.73522       -0.40690        2.90421
H          3.80542       -2.14617        2.52572

--Link1--
%chk=JID_10819.chk
%mem=8GB
%nprocshared=4
# B3LYP/6-311++G(d,p) empiricaldispersion=gd3bj scf=xqc pop=npa geom=check

CID_45358479_JID_10819_Energie_neutraal

0 1

--Link1--
%chk=JID_10819.chk
%mem=8GB
%nprocshared=4
# B3LYP/6-311++G(d,p) empiricaldispersion=gd3bj scf=xqc pop=npa geom=check

CID_45358479_JID_10819_Energie_kation

1 2

--Link1--
%chk=JID_10819.chk
%mem=8GB
%nprocshared=4
# B3LYP/6-311++G(d,p) empiricaldispersion=gd3bj scf=xqc pop=npa geom=check

CID_45358479_JID_10819_Energie_anion

-1 2
