%chk=JID_1869.chk
%mem=8GB
%nprocshared=4
# opt freq B3LYP/6-31G(d) empiricaldispersion=gd3bj scf=xqc

CID_129196218_JID_1869_neutraal

0 1
C          0.99806        0.07430        0.06690
C          0.22891       -1.19334       -0.26795
N          1.15800       -2.22530       -0.69553
C          0.78354       -3.49894       -0.77349
C          0.01317       -4.36106       -1.40327
C         -0.03023       -5.82143       -1.10936
C          1.74664       -3.29013        0.25936
C          3.17753       -3.66047       -0.07046
C          1.33708       -3.25351        1.74643
C          0.02965       -4.00085        2.04512
C          2.41325       -3.80498        2.69381
H          1.70157       -0.09280        0.88889
H          0.30873        0.87107        0.36281
H          1.57298        0.42360       -0.79747
H         -0.38945       -1.49147        0.58461
H         -0.45920       -0.97543       -1.09372
H         -0.61734       -4.00008       -2.21021
H         -1.02706       -6.10335       -0.75734
H          0.18684       -6.38999       -2.01893
H          0.70019       -6.11425       -0.34870
H          3.87459       -2.95861        0.39849
H          3.40672       -4.67528        0.26972
H          3.37357       -3.63155       -1.14947
H          1.19866       -2.20596        2.03822
H          0.12098       -5.06727        1.81468
H         -0.23349       -3.91145        3.10509
H         -0.81277       -3.60151        1.47289
H          3.34550       -3.23719        2.61381
H          2.08513       -3.73497        3.73704
H          2.63153       -4.85759        2.48394

--Link1--
%chk=JID_1869.chk
%mem=8GB
%nprocshared=4
# B3LYP/6-311++G(d,p) empiricaldispersion=gd3bj scf=xqc pop=npa geom=check

CID_129196218_JID_1869_Energie_neutraal

0 1

--Link1--
%chk=JID_1869.chk
%mem=8GB
%nprocshared=4
# B3LYP/6-311++G(d,p) empiricaldispersion=gd3bj scf=xqc pop=npa geom=check

CID_129196218_JID_1869_Energie_kation

1 2

--Link1--
%chk=JID_1869.chk
%mem=8GB
%nprocshared=4
# B3LYP/6-311++G(d,p) empiricaldispersion=gd3bj scf=xqc pop=npa geom=check

CID_129196218_JID_1869_Energie_anion

-1 2
