%chk=JID_2855.chk
%mem=8GB
%nprocshared=4
# opt freq B3LYP/6-31G(d) empiricaldispersion=gd3bj scf=xqc

CID_123404722_JID_2855_neutraal

0 1
C          0.95691       -0.01098        0.08957
C          0.48415       -0.08808       -1.33893
C          0.12524       -1.22612       -1.98219
C          0.15064       -2.56143       -1.26207
C         -0.40413       -3.74857       -2.03885
C          0.14607       -3.73507       -3.45014
C         -0.34713       -2.49176       -4.17919
C         -0.24916       -1.18775       -3.40922
C         -0.54384       -0.00918       -4.01010
C         -0.45444        1.29521       -3.25726
C          0.46895        1.24642       -2.04275
C         -1.01100        0.14697       -5.43391
H          1.06647       -0.98560        0.57071
H          0.25090        0.57534        0.68695
H          1.93563        0.47904        0.13335
H         -0.40984       -2.48892       -0.32164
H          1.19379       -2.78835       -1.00268
H         -1.50040       -3.70887       -2.05873
H         -0.12665       -4.68082       -1.53395
H          1.24292       -3.75202       -3.42999
H         -0.17820       -4.63154       -3.99069
H          0.21432       -2.41359       -5.11859
H         -1.40144       -2.65317       -4.44245
H         -0.10073        2.09362       -3.92144
H         -1.46686        1.57703       -2.93967
H          1.49598        1.48233       -2.35073
H          0.16023        2.03828       -1.34895
H         -1.95886        0.69551       -5.45822
H         -0.27135        0.71135       -6.01137
H         -1.17857       -0.80157       -5.94926

--Link1--
%chk=JID_2855.chk
%mem=8GB
%nprocshared=4
# B3LYP/6-311++G(d,p) empiricaldispersion=gd3bj scf=xqc pop=npa geom=check

CID_123404722_JID_2855_Energie_neutraal

0 1

--Link1--
%chk=JID_2855.chk
%mem=8GB
%nprocshared=4
# B3LYP/6-311++G(d,p) empiricaldispersion=gd3bj scf=xqc pop=npa geom=check

CID_123404722_JID_2855_Energie_kation

1 2

--Link1--
%chk=JID_2855.chk
%mem=8GB
%nprocshared=4
# B3LYP/6-311++G(d,p) empiricaldispersion=gd3bj scf=xqc pop=npa geom=check

CID_123404722_JID_2855_Energie_anion

-1 2
