%chk=JID_7143.chk
%mem=8GB
%nprocshared=4
# opt freq B3LYP/6-31G(d) empiricaldispersion=gd3bj scf=xqc

CID_115149116_JID_7143_neutraal

0 1
C          0.98207       -0.09772        0.01136
N          0.75277       -1.48711        0.44411
C         -0.50430       -1.53126        1.22926
C         -1.74218       -2.01791        0.44865
C         -1.91219       -1.50204       -0.98087
C         -2.97349       -2.43139       -1.54954
C         -2.57476       -3.80056       -1.01809
C         -1.85545       -3.54234        0.30668
C          1.91259       -2.03648        1.19872
C          1.81456       -3.57618        1.32467
C          1.97873       -4.28749       -0.02200
C          3.30321       -3.92380       -0.69441
C          3.50212       -2.40821       -0.78538
C          3.30071       -1.73644        0.57484
C          3.39819       -4.59001       -2.04738
O          4.05072       -5.59061       -2.30069
O          2.63921       -4.01797       -2.99902
H          0.08254        0.33569       -0.43906
H          1.74681       -0.04196       -0.76847
H          1.27884        0.54605        0.84759
H         -0.40434       -2.16961        2.11576
H         -0.72435       -0.53742        1.64462
H         -2.62156       -1.68833        1.02214
H         -2.22713       -0.45501       -1.01153
H         -0.99204       -1.60773       -1.56644
H         -3.00866       -2.40623       -2.64254
H         -3.96374       -2.15375       -1.16981
H         -1.88657       -4.28948       -1.71801
H         -3.44098       -4.45804       -0.89544
H         -0.88466       -4.03914        0.29836
H         -2.42088       -3.96156        1.14674
H          1.91395       -1.60022        2.20714
H          2.60289       -3.92536        2.00530
H          0.87406       -3.88565        1.79039
H          1.14400       -4.03468       -0.68619
H          1.92722       -5.37237        0.13232
H          4.12479       -4.33091       -0.08913
H          2.81472       -1.97208       -1.51905
H          4.51325       -2.19254       -1.15206
H          3.47815       -0.65880        0.49086
H          4.07733       -2.10041        1.26172
H          2.77770       -4.58080       -3.78849

--Link1--
%chk=JID_7143.chk
%mem=8GB
%nprocshared=4
# B3LYP/6-311++G(d,p) empiricaldispersion=gd3bj scf=xqc pop=npa geom=check

CID_115149116_JID_7143_Energie_neutraal

0 1

--Link1--
%chk=JID_7143.chk
%mem=8GB
%nprocshared=4
# B3LYP/6-311++G(d,p) empiricaldispersion=gd3bj scf=xqc pop=npa geom=check

CID_115149116_JID_7143_Energie_kation

1 2

--Link1--
%chk=JID_7143.chk
%mem=8GB
%nprocshared=4
# B3LYP/6-311++G(d,p) empiricaldispersion=gd3bj scf=xqc pop=npa geom=check

CID_115149116_JID_7143_Energie_anion

-1 2
