%chk=JID_2763.chk
%mem=8GB
%nprocshared=4
# opt freq B3LYP/6-31G(d) empiricaldispersion=gd3bj scf=xqc

CID_21708965_JID_2763_neutraal

0 1
C          0.94490       -0.08202       -0.01539
C          0.00707       -0.34612       -1.20223
C         -0.76561       -1.64409       -0.93814
C         -0.95069        0.84178       -1.34896
O          0.87526       -0.49113       -2.33730
C          0.25129       -0.60345       -3.61993
C          1.30842       -0.93245       -4.68711
C          1.56143       -2.45657       -4.71121
O          0.95278       -3.19279       -5.49569
N          2.47365       -3.02407       -3.87305
C          3.21165       -2.40252       -2.79976
N          0.83534       -0.51867       -6.03784
H          0.39205        0.03971        0.92202
H          1.54135        0.82203       -0.18514
H          1.65886       -0.90458        0.10887
H         -1.29095       -1.60838        0.02237
H         -1.51466       -1.83437       -1.71346
H         -0.08902       -2.50609       -0.93426
H         -0.40563        1.75029       -1.62837
H         -1.69500        0.66295       -2.13244
H         -1.49459        1.03432       -0.41785
H         -0.53022       -1.36963       -3.60840
H         -0.20711        0.36310       -3.85662
H          2.24376       -0.40141       -4.49196
H          2.50813       -4.03355       -3.94944
H          2.61315       -2.46310       -1.88807
H          4.13769       -2.96491       -2.65584
H          3.45126       -1.36272       -3.02346
H          1.57371       -0.74931       -6.70554
H          0.07909       -1.16280       -6.29440

--Link1--
%chk=JID_2763.chk
%mem=8GB
%nprocshared=4
# B3LYP/6-311++G(d,p) empiricaldispersion=gd3bj scf=xqc pop=npa geom=check

CID_21708965_JID_2763_Energie_neutraal

0 1

--Link1--
%chk=JID_2763.chk
%mem=8GB
%nprocshared=4
# B3LYP/6-311++G(d,p) empiricaldispersion=gd3bj scf=xqc pop=npa geom=check

CID_21708965_JID_2763_Energie_kation

1 2

--Link1--
%chk=JID_2763.chk
%mem=8GB
%nprocshared=4
# B3LYP/6-311++G(d,p) empiricaldispersion=gd3bj scf=xqc pop=npa geom=check

CID_21708965_JID_2763_Energie_anion

-1 2
