%chk=JID_7691.chk
%mem=8GB
%nprocshared=4
# opt freq B3LYP/6-31G(d) empiricaldispersion=gd3bj scf=xqc

CID_13034886_JID_7691_neutraal

0 1
C          1.06456        0.06123        0.04564
N          0.07899       -0.22077        1.06393
C         -0.73553        0.67502        1.70990
O         -1.33652        0.35032        2.72915
C         -0.87768        2.04867        1.18321
C         -0.70329        3.12026        2.06318
C         -0.85750        4.42582        1.59789
C         -1.16531        4.66022        0.25321
C         -1.36451        3.58616       -0.61691
C         -1.23116        2.27777       -0.15113
O         -0.62867        5.43353        2.50815
C         -1.47413        6.52023        2.42872
C         -2.78148        6.41122        2.88477
C         -3.59045        7.54141        2.83043
C         -3.06272        8.73175        2.34034
C         -1.73970        8.74397        1.92520
N         -0.92948        7.66488        1.96119
H          1.50846        1.04771        0.19939
H          0.58455        0.01078       -0.93442
H          1.84376       -0.70300        0.10287
H          0.10736       -1.12698        1.51671
H         -0.45030        2.93655        3.10450
H         -1.24651        5.67585       -0.12772
H         -1.62352        3.77205       -1.65635
H         -1.41231        1.44446       -0.82453
H         -3.15721        5.47200        3.27425
H         -4.61999        7.49579        3.17364
H         -3.66552        9.63174        2.28950
H         -1.28209        9.65234        1.54358

--Link1--
%chk=JID_7691.chk
%mem=8GB
%nprocshared=4
# B3LYP/6-311++G(d,p) empiricaldispersion=gd3bj scf=xqc pop=npa geom=check

CID_13034886_JID_7691_Energie_neutraal

0 1

--Link1--
%chk=JID_7691.chk
%mem=8GB
%nprocshared=4
# B3LYP/6-311++G(d,p) empiricaldispersion=gd3bj scf=xqc pop=npa geom=check

CID_13034886_JID_7691_Energie_kation

1 2

--Link1--
%chk=JID_7691.chk
%mem=8GB
%nprocshared=4
# B3LYP/6-311++G(d,p) empiricaldispersion=gd3bj scf=xqc pop=npa geom=check

CID_13034886_JID_7691_Energie_anion

-1 2
