%chk=JID_7019.chk
%mem=8GB
%nprocshared=4
# opt freq B3LYP/6-31G(d) empiricaldispersion=gd3bj scf=xqc

CID_116228933_JID_7019_neutraal

0 1
C          1.04551        0.04956        0.07398
C          0.63119       -0.87252        1.21988
C          1.46228       -0.59673        2.47413
C         -0.84319       -0.84243        1.50476
C         -1.68912       -1.93023        1.55343
O         -2.94699       -1.52651        1.85417
N         -2.96561       -0.16014        2.02831
C         -1.71188        0.25592        1.80333
C         -1.41086        1.71501        1.91402
C         -1.71128        2.50923        0.63619
C         -3.19856        2.68464        0.30573
C         -3.94169        3.49872        1.32522
C         -4.76757        3.04644        2.33558
C         -5.30944        4.11085        3.11124
C         -4.88621        5.34151        2.66280
S         -3.84351        5.20976        1.31436
N         -1.49868       -3.24723        1.37924
H          0.97136        1.10573        0.34823
H          0.42199       -0.11552       -0.81151
H          2.08681       -0.13869       -0.21028
H          0.88674       -1.89041        0.89464
H          1.30680        0.41779        2.85404
H          1.20102       -1.29459        3.27756
H          2.53078       -0.71403        2.26337
H         -1.94837        2.14080        2.76946
H         -0.34979        1.84387        2.15284
H         -1.24387        3.49768        0.73056
H         -1.22916        2.02104       -0.21959
H         -3.28224        3.17500       -0.67322
H         -3.68273        1.70905        0.18512
H         -4.96860        1.99535        2.51228
H         -5.97731        3.97872        3.95332
H         -5.14103        6.31440        3.05949
H         -2.23874       -3.87422        1.68067
H         -0.56930       -3.64386        1.45520

--Link1--
%chk=JID_7019.chk
%mem=8GB
%nprocshared=4
# B3LYP/6-311++G(d,p) empiricaldispersion=gd3bj scf=xqc pop=npa geom=check

CID_116228933_JID_7019_Energie_neutraal

0 1

--Link1--
%chk=JID_7019.chk
%mem=8GB
%nprocshared=4
# B3LYP/6-311++G(d,p) empiricaldispersion=gd3bj scf=xqc pop=npa geom=check

CID_116228933_JID_7019_Energie_kation

1 2

--Link1--
%chk=JID_7019.chk
%mem=8GB
%nprocshared=4
# B3LYP/6-311++G(d,p) empiricaldispersion=gd3bj scf=xqc pop=npa geom=check

CID_116228933_JID_7019_Energie_anion

-1 2
