%chk=JID_10254.chk
%mem=8GB
%nprocshared=4
# opt freq B3LYP/6-31G(d) empiricaldispersion=gd3bj scf=xqc

CID_63485019_JID_10254_neutraal

0 1
C          0.90739       -0.01848       -0.03289
C         -0.06112       -0.62334       -1.03234
N          0.63760       -0.83246       -2.30813
C         -0.16599       -1.59262       -3.22076
C         -0.14899       -3.01584       -3.14703
C          0.72705       -3.71354       -2.29170
C          0.71319       -5.10177       -2.21349
C         -0.17218       -5.84036       -2.99851
C         -1.02560       -5.15889       -3.89860
C         -1.03270       -3.75161       -3.96977
N         -1.88096       -3.12808       -4.81293
C         -1.87803       -1.77577       -4.87103
C         -1.06167       -0.96656       -4.10342
C         -1.13117        0.50638       -4.22635
O         -0.22513        1.25530       -3.89443
O         -2.34966        0.88684       -4.68622
C         -2.56392        2.30392       -4.78165
C         -2.97114        2.87054       -3.43334
C         -2.00007       -5.92150       -4.76782
C         -0.16883       -7.33953       -2.87382
H          1.75869       -0.68545        0.14018
H          0.40834        0.15587        0.92528
H          1.29987        0.93822       -0.39366
H         -0.44309       -1.56660       -0.62499
H         -0.91207        0.05411       -1.17194
H          0.82703        0.08770       -2.73238
H          1.43647       -3.16484       -1.67443
H          1.40039       -5.59738       -1.53111
H         -2.58545       -1.36423       -5.58610
H         -1.67688        2.80983       -5.17992
H         -3.37355        2.45583       -5.50288
H         -2.17256        2.74611       -2.69508
H         -3.20450        3.93587       -3.51519
H         -3.84865        2.34444       -3.04355
H         -2.99552       -5.90201       -4.31302
H         -2.05405       -5.48722       -5.77196
H         -1.70426       -6.96432       -4.91037
H         -1.17942       -7.70949       -2.67320
H          0.21743       -7.79523       -3.79081
H          0.46503       -7.67240       -2.04457

--Link1--
%chk=JID_10254.chk
%mem=8GB
%nprocshared=4
# B3LYP/6-311++G(d,p) empiricaldispersion=gd3bj scf=xqc pop=npa geom=check

CID_63485019_JID_10254_Energie_neutraal

0 1

--Link1--
%chk=JID_10254.chk
%mem=8GB
%nprocshared=4
# B3LYP/6-311++G(d,p) empiricaldispersion=gd3bj scf=xqc pop=npa geom=check

CID_63485019_JID_10254_Energie_kation

1 2

--Link1--
%chk=JID_10254.chk
%mem=8GB
%nprocshared=4
# B3LYP/6-311++G(d,p) empiricaldispersion=gd3bj scf=xqc pop=npa geom=check

CID_63485019_JID_10254_Energie_anion

-1 2
