%chk=JID_7794.chk
%mem=8GB
%nprocshared=4
# opt freq B3LYP/6-31G(d) empiricaldispersion=gd3bj scf=xqc

CID_115217619_JID_7794_neutraal

0 1
C         -2.61700       -0.69800        0.00300
C         -1.41380       -1.41428        0.04110
C         -0.25556       -0.67665        0.01186
C         -0.26151        0.71446       -0.05211
C         -1.42656        1.44226       -0.09220
C         -2.63577        0.72185       -0.06681
C         -3.95450        1.46406       -0.09495
N         -4.14829        2.20562        1.14839
C         -5.40725        2.94355        1.18365
C         -6.67113        2.08720        1.33409
C         -6.69738        1.15420        2.55116
C         -6.53885        1.85188        3.89761
O         -7.58139        2.79270        4.10505
N          1.05936        1.14852       -0.06036
C          1.90155        0.02915       -0.00153
O          3.11934        0.03385        0.01055
N          1.06887       -1.09860        0.04156
H         -3.55506       -1.25042        0.02919
H         -1.40412       -2.49589        0.09375
H         -1.42023        2.52578       -0.13002
H         -3.94902        2.14493       -0.95510
H         -4.76769        0.74761       -0.25611
H         -4.07719        1.56447        1.93582
H         -5.35507        3.64972        2.02004
H         -5.49824        3.56668        0.28522
H         -7.53708        2.75948        1.37937
H         -6.81585        1.48179        0.43121
H         -7.66335        0.63345        2.54160
H         -5.92517        0.38343        2.44948
H         -6.59931        1.11064        4.70092
H         -5.57353        2.35834        3.99183
H         -7.37723        3.58520        3.58095
H          1.38868        2.09883       -0.09629
H          1.40930       -2.04428        0.09031

--Link1--
%chk=JID_7794.chk
%mem=8GB
%nprocshared=4
# B3LYP/6-311++G(d,p) empiricaldispersion=gd3bj scf=xqc pop=npa geom=check

CID_115217619_JID_7794_Energie_neutraal

0 1

--Link1--
%chk=JID_7794.chk
%mem=8GB
%nprocshared=4
# B3LYP/6-311++G(d,p) empiricaldispersion=gd3bj scf=xqc pop=npa geom=check

CID_115217619_JID_7794_Energie_kation

1 2

--Link1--
%chk=JID_7794.chk
%mem=8GB
%nprocshared=4
# B3LYP/6-311++G(d,p) empiricaldispersion=gd3bj scf=xqc pop=npa geom=check

CID_115217619_JID_7794_Energie_anion

-1 2
