%chk=JID_10498.chk
%mem=8GB
%nprocshared=4
# opt freq B3LYP/6-31G(d) empiricaldispersion=gd3bj scf=xqc

CID_23010051_JID_10498_neutraal

0 1
C          0.98006        0.07795        0.05938
C          1.40656        1.08471       -0.94056
N          1.47416        0.91136       -2.24547
N          1.87303        2.09922       -2.81534
C          2.03257        2.97025       -1.84762
N          1.79205        2.37154       -0.64406
C          1.90695        2.94589        0.66952
S          2.50702        4.61661       -2.06021
C          0.95257        5.52119       -1.73500
C         -0.24715        5.02277       -2.54349
O         -0.93721        4.04012       -1.76790
C         -1.53901        2.98651       -2.39244
C         -2.19845        2.11032       -1.52322
C         -2.80006        0.94337       -2.00147
C         -2.74832        0.64071       -3.36472
C         -2.11363        1.52630       -4.24065
C         -1.51694        2.69748       -3.75585
C         -3.36064       -0.62579       -3.83132
O         -3.92093       -1.44748       -3.12868
O         -3.24287       -0.80700       -5.15873
H          0.54746       -0.79578       -0.43800
H          0.22192        0.49051        0.73212
H          1.83476       -0.25810        0.65402
H          2.71169        3.68429        0.68432
H          0.95285        3.41314        0.92430
H          2.14758        2.16254        1.39218
H          0.74781        5.48799       -0.66004
H          1.15584        6.56244       -2.00544
H         -0.94874        5.85315       -2.68506
H          0.08261        4.69076       -3.53011
H         -2.22734        2.32793       -0.45879
H         -3.29200        0.26685       -1.30650
H         -2.05245        1.30659       -5.30388
H         -1.01750        3.32974       -4.48000
H         -3.65914       -1.67966       -5.31563

--Link1--
%chk=JID_10498.chk
%mem=8GB
%nprocshared=4
# B3LYP/6-311++G(d,p) empiricaldispersion=gd3bj scf=xqc pop=npa geom=check

CID_23010051_JID_10498_Energie_neutraal

0 1

--Link1--
%chk=JID_10498.chk
%mem=8GB
%nprocshared=4
# B3LYP/6-311++G(d,p) empiricaldispersion=gd3bj scf=xqc pop=npa geom=check

CID_23010051_JID_10498_Energie_kation

1 2

--Link1--
%chk=JID_10498.chk
%mem=8GB
%nprocshared=4
# B3LYP/6-311++G(d,p) empiricaldispersion=gd3bj scf=xqc pop=npa geom=check

CID_23010051_JID_10498_Energie_anion

-1 2
