%chk=JID_7166.chk
%mem=8GB
%nprocshared=4
# opt freq B3LYP/6-31G(d) empiricaldispersion=gd3bj scf=xqc

CID_154454578_JID_7166_neutraal

0 1
C          1.08470       -0.02758       -0.04544
O          0.51788        0.41481        1.18021
C         -0.14433       -0.62863        1.90074
C         -1.53289       -0.94832        1.33992
O         -1.41889       -1.77522        0.17588
C         -2.67484       -2.30178       -0.26908
C         -3.03268       -3.57798        0.49636
O         -1.97903       -4.53309        0.28228
C         -1.70990       -5.31943        1.37361
C         -2.75365       -5.99299        2.02694
C         -2.49196       -6.81093        3.12641
C         -1.18501       -6.97809        3.57106
C         -0.13807       -6.33783        2.90603
C         -0.38189       -5.50948        1.79537
C          0.82158       -4.88941        1.15893
O          1.95654       -5.14740        1.54795
N          0.64343       -4.00338        0.13967
H          0.30527       -0.23759       -0.78157
H          1.71754       -0.90705        0.10651
H          1.70804        0.77988       -0.43997
H          0.49121       -1.52040        1.94141
H         -0.26322       -0.25644        2.92369
H         -2.10497       -1.47622        2.10890
H         -2.05621       -0.02650        1.06421
H         -3.46411       -1.54664       -0.18578
H         -2.54573       -2.54398       -1.32929
H         -3.15490       -3.34804        1.56113
H         -3.96851       -3.99327        0.10725
H         -3.77791       -5.90172        1.67632
H         -3.30687       -7.32602        3.62910
H         -0.97358       -7.61621        4.42564
H          0.88154       -6.49158        3.25753
H         -0.27525       -3.65715       -0.11799
H          1.45572       -3.53901       -0.23823

--Link1--
%chk=JID_7166.chk
%mem=8GB
%nprocshared=4
# B3LYP/6-311++G(d,p) empiricaldispersion=gd3bj scf=xqc pop=npa geom=check

CID_154454578_JID_7166_Energie_neutraal

0 1

--Link1--
%chk=JID_7166.chk
%mem=8GB
%nprocshared=4
# B3LYP/6-311++G(d,p) empiricaldispersion=gd3bj scf=xqc pop=npa geom=check

CID_154454578_JID_7166_Energie_kation

1 2

--Link1--
%chk=JID_7166.chk
%mem=8GB
%nprocshared=4
# B3LYP/6-311++G(d,p) empiricaldispersion=gd3bj scf=xqc pop=npa geom=check

CID_154454578_JID_7166_Energie_anion

-1 2
