%chk=JID_4388.chk
%mem=8GB
%nprocshared=4
# opt freq B3LYP/6-31G(d) empiricaldispersion=gd3bj scf=xqc

CID_82884419_JID_4388_neutraal

0 1
C          0.97124        0.05241       -0.08016
C          0.49444       -0.40658        1.29054
C          0.84733        0.57898        2.42223
C          2.34449        0.45388        2.76297
C          2.91181        1.48514        3.73208
C          3.00019        2.87030        3.09524
C          1.74206        3.74019        3.29907
C          0.40721        2.97913        3.20510
C          0.34706        1.98675        2.05430
C          1.79166        4.86852        2.28182
N          1.83281        5.80456        1.43792
N          1.88176        4.33471        4.66336
C          1.06644        5.11103        4.99622
O          0.23398        5.87157        5.32304
H          0.41497        0.92501       -0.43506
H          0.79816       -0.74647       -0.80983
H          2.03861        0.28474       -0.10117
H         -0.59392       -0.54036        1.25316
H          0.91867       -1.39345        1.51210
H          0.29229        0.25101        3.31235
H          2.50851       -0.54141        3.19780
H          2.95105        0.47525        1.85066
H          3.93090        1.16678        3.98703
H          2.35068        1.49818        4.67266
H          3.23215        2.76687        2.02633
H          3.86724        3.39165        3.52612
H         -0.41028        3.70195        3.07131
H          0.18503        2.46185        4.14782
H          0.88296        2.38790        1.18735
H         -0.70572        1.90022        1.75294

--Link1--
%chk=JID_4388.chk
%mem=8GB
%nprocshared=4
# B3LYP/6-311++G(d,p) empiricaldispersion=gd3bj scf=xqc pop=npa geom=check

CID_82884419_JID_4388_Energie_neutraal

0 1

--Link1--
%chk=JID_4388.chk
%mem=8GB
%nprocshared=4
# B3LYP/6-311++G(d,p) empiricaldispersion=gd3bj scf=xqc pop=npa geom=check

CID_82884419_JID_4388_Energie_kation

1 2

--Link1--
%chk=JID_4388.chk
%mem=8GB
%nprocshared=4
# B3LYP/6-311++G(d,p) empiricaldispersion=gd3bj scf=xqc pop=npa geom=check

CID_82884419_JID_4388_Energie_anion

-1 2
