%chk=JID_3329.chk
%mem=8GB
%nprocshared=4
# opt freq B3LYP/6-31G(d) empiricaldispersion=gd3bj scf=xqc

CID_23510517_JID_3329_neutraal

0 1
C          1.05771        0.02093       -0.07894
C          1.78452       -0.97677        0.80625
N          1.42402       -0.79294        2.20722
C          0.17072        2.89520        3.37426
C         -0.92655        2.35646        2.50454
C         -1.64723        1.21833        2.88385
C         -2.64959        0.70631        2.05512
C         -2.94455        1.32551        0.83611
C         -2.21346        2.45366        0.44799
C         -1.21041        2.96458        1.27580
S         -4.22223        0.64957       -0.25714
O         -5.04374       -0.27283        0.59045
O         -5.05576        2.01992       -0.29071
H          1.30704        1.05111        0.19604
H         -0.02751       -0.10342       -0.00664
H          1.34285       -0.12614       -1.12556
H          1.53398       -1.99764        0.50028
H          2.86674       -0.85613        0.69308
H          0.41155       -0.87805        2.30278
H          1.63920        0.16402        2.48468
H          0.07880        2.52909        4.40207
H          1.14459        2.58738        2.98119
H          0.12932        3.98873        3.41131
H         -1.43690        0.72157        3.82900
H         -3.20128       -0.17760        2.36882
H         -2.42493        2.94495       -0.49908
H         -0.65322        3.84276        0.95630
H         -5.88318        1.83912        0.21445

--Link1--
%chk=JID_3329.chk
%mem=8GB
%nprocshared=4
# B3LYP/6-311++G(d,p) empiricaldispersion=gd3bj scf=xqc pop=npa geom=check

CID_23510517_JID_3329_Energie_neutraal

0 1

--Link1--
%chk=JID_3329.chk
%mem=8GB
%nprocshared=4
# B3LYP/6-311++G(d,p) empiricaldispersion=gd3bj scf=xqc pop=npa geom=check

CID_23510517_JID_3329_Energie_kation

1 2

--Link1--
%chk=JID_3329.chk
%mem=8GB
%nprocshared=4
# B3LYP/6-311++G(d,p) empiricaldispersion=gd3bj scf=xqc pop=npa geom=check

CID_23510517_JID_3329_Energie_anion

-1 2
