%chk=JID_6243.chk
%mem=8GB
%nprocshared=4
# opt freq B3LYP/6-31G(d) empiricaldispersion=gd3bj scf=xqc

CID_103563826_JID_6243_neutraal

0 1
C          0.97019        0.07376        0.06059
C          0.27172       -1.24582        0.39444
C          1.03404       -1.97774        1.49482
C         -1.19436       -0.96694        0.74323
C         -2.12671       -2.12342        1.22457
C         -2.91062       -1.03851        1.99858
C         -1.59612       -0.22701        2.06023
N         -3.44293       -1.49964        3.27647
C         -4.49877       -2.48386        3.12641
C         -2.61548       -1.58700        4.47483
C         -1.49950       -2.64800        4.62185
C         -2.02448       -4.09952        4.64453
N         -0.95879       -5.09355        4.90001
C         -0.25604       -4.71989        6.13932
C          0.26051       -3.27705        6.09192
O         -0.81047       -2.35504        5.86268
H          0.98059        0.74869        0.92338
H          0.45760        0.59071       -0.75779
H          2.00631       -0.09970       -0.24840
H          0.29530       -1.87538       -0.50416
H          1.06493       -1.40234        2.42492
H          0.58647       -2.95146        1.71301
H          2.06959       -2.16024        1.18678
H         -1.64972       -0.46770       -0.13004
H         -2.68738       -2.62252        0.42784
H         -1.63884       -2.89422        1.82402
H         -3.66919       -0.54395        1.37515
H         -0.91076       -0.41504        2.88891
H         -1.71641        0.85637        1.96189
H         -4.14293       -3.42194        2.69261
H         -4.97694       -2.70707        4.08635
H         -5.28890       -2.09869        2.47148
H         -2.17230       -0.59952        4.66252
H         -3.28531       -1.69726        5.34055
H         -0.76816       -2.52796        3.81795
H         -2.79409       -4.21095        5.41800
H         -2.48132       -4.35902        3.68754
H         -0.29360       -5.05376        4.12725
H         -0.94549       -4.84006        6.98358
H          0.57937       -5.40920        6.29988
H          0.72260       -3.01660        7.04935
H          1.01904       -3.15047        5.31021

--Link1--
%chk=JID_6243.chk
%mem=8GB
%nprocshared=4
# B3LYP/6-311++G(d,p) empiricaldispersion=gd3bj scf=xqc pop=npa geom=check

CID_103563826_JID_6243_Energie_neutraal

0 1

--Link1--
%chk=JID_6243.chk
%mem=8GB
%nprocshared=4
# B3LYP/6-311++G(d,p) empiricaldispersion=gd3bj scf=xqc pop=npa geom=check

CID_103563826_JID_6243_Energie_kation

1 2

--Link1--
%chk=JID_6243.chk
%mem=8GB
%nprocshared=4
# B3LYP/6-311++G(d,p) empiricaldispersion=gd3bj scf=xqc pop=npa geom=check

CID_103563826_JID_6243_Energie_anion

-1 2
