%chk=JID_3600.chk
%mem=8GB
%nprocshared=4
# opt freq B3LYP/6-31G(d) empiricaldispersion=gd3bj scf=xqc

CID_143617932_JID_3600_neutraal

0 1
C          1.06451        0.07417       -0.01835
C          0.22654        0.95588       -0.93060
C          0.63942        0.87305       -2.40020
C          0.40435       -0.49691       -3.01769
C         -0.67123       -4.01564        0.85413
C         -1.47520       -3.17648        1.83237
C         -0.61586       -2.54227        2.92669
C         -1.50510       -1.43075        3.48645
C         -0.78808       -0.14244        3.83384
C         -1.66747        0.92251        3.21321
O         -2.23174        0.32270        2.04176
C         -2.46113       -1.05163        2.35420
C         -2.13472       -1.96341        1.17841
H          0.92213       -0.98692       -0.24070
H          0.77946        0.23705        1.02481
H          2.12934        0.30747       -0.11718
H         -0.83165        0.69060       -0.82487
H          0.32660        1.99602       -0.59827
H          0.06312        1.61459       -2.96616
H          1.69621        1.14432       -2.50694
H         -0.63902       -0.80662       -2.90140
H          0.63280       -0.47030       -4.08804
H          1.04443       -1.25781       -2.56160
H          0.11125       -3.42551        0.36572
H         -1.32041       -4.42529        0.07346
H         -0.18919       -4.85263        1.36967
H         -2.24708       -3.80439        2.29596
H         -0.33748       -3.26569        3.70005
H          0.31132       -2.14032        2.50123
H         -2.07811       -1.80743        4.34218
H          0.20935       -0.10513        3.38356
H         -0.66539        0.00049        4.91165
H         -1.10859        1.82087        2.93666
H         -2.48515        1.20741        3.88442
H         -3.50472       -1.17063        2.66824
H         -1.46155       -1.46771        0.47092
H         -3.03703       -2.24361        0.62471

--Link1--
%chk=JID_3600.chk
%mem=8GB
%nprocshared=4
# B3LYP/6-311++G(d,p) empiricaldispersion=gd3bj scf=xqc pop=npa geom=check

CID_143617932_JID_3600_Energie_neutraal

0 1

--Link1--
%chk=JID_3600.chk
%mem=8GB
%nprocshared=4
# B3LYP/6-311++G(d,p) empiricaldispersion=gd3bj scf=xqc pop=npa geom=check

CID_143617932_JID_3600_Energie_kation

1 2

--Link1--
%chk=JID_3600.chk
%mem=8GB
%nprocshared=4
# B3LYP/6-311++G(d,p) empiricaldispersion=gd3bj scf=xqc pop=npa geom=check

CID_143617932_JID_3600_Energie_anion

-1 2
