%chk=JID_7187.chk
%mem=8GB
%nprocshared=4
# opt freq B3LYP/6-31G(d) empiricaldispersion=gd3bj scf=xqc

CID_60863038_JID_7187_neutraal

0 1
C          1.04910        0.01269        0.08619
N          0.64455        1.29732        0.60242
C          1.39524        2.42724        0.75136
C          0.55855        3.38265        1.29596
C         -0.68500        2.73621        1.40703
N         -0.63423        1.46513        0.99856
C          1.00032        4.76846        1.63187
C          2.28826        5.09528        0.82662
C          3.34225        3.96763        0.88828
C          2.81238        2.62581        0.34598
N          1.32306        4.82691        3.06866
C          0.16103        5.17658        3.88948
C          0.45788        5.02531        5.38723
C          1.74846        5.67584        5.88381
C          1.84192        7.13947        5.52486
O          1.42773        8.04209        6.24142
N          2.40853        7.39130        4.31006
H          0.38836       -0.24898       -0.74435
H          0.96194       -0.72196        0.89059
H          2.08108        0.05753       -0.26660
H         -1.62416        3.12933        1.77388
H          0.23312        5.50571        1.36622
H          2.73079        6.03280        1.18541
H          2.01884        5.26155       -0.22535
H          4.23234        4.26084        0.31961
H          3.66829        3.83430        1.92747
H          2.86963        2.63235       -0.74915
H          3.44701        1.81012        0.70828
H          1.67380        3.90881        3.35234
H         -0.13870        6.20995        3.67863
H         -0.69898        4.53997        3.65506
H         -0.39003        5.44411        5.94401
H          0.49627        3.95717        5.63705
H          1.81168        5.59009        6.97509
H          2.62509        5.14912        5.48743
H          2.40084        6.65108        3.61073
H          2.37371        8.34731        3.98393

--Link1--
%chk=JID_7187.chk
%mem=8GB
%nprocshared=4
# B3LYP/6-311++G(d,p) empiricaldispersion=gd3bj scf=xqc pop=npa geom=check

CID_60863038_JID_7187_Energie_neutraal

0 1

--Link1--
%chk=JID_7187.chk
%mem=8GB
%nprocshared=4
# B3LYP/6-311++G(d,p) empiricaldispersion=gd3bj scf=xqc pop=npa geom=check

CID_60863038_JID_7187_Energie_kation

1 2

--Link1--
%chk=JID_7187.chk
%mem=8GB
%nprocshared=4
# B3LYP/6-311++G(d,p) empiricaldispersion=gd3bj scf=xqc pop=npa geom=check

CID_60863038_JID_7187_Energie_anion

-1 2
