%chk=JID_3819.chk
%mem=8GB
%nprocshared=4
# opt freq B3LYP/6-31G(d) empiricaldispersion=gd3bj scf=xqc

CID_152797212_JID_3819_neutraal

0 1
C          0.99211        0.09790        0.01881
C          1.96132        0.13092        1.29437
C          1.35309       -0.33885        2.63684
C          0.33758        0.63706        3.18888
C         -0.94662        0.37719        2.88440
C         -1.75218       -0.26901        3.97642
C         -1.20150       -1.69520        4.15204
C          0.08862       -1.75305        4.95369
C          1.19528       -1.80268        5.64134
C          2.52641       -1.51856        4.97815
C          2.55759       -0.58785        3.61422
C          3.61810       -1.04633        2.58464
N          3.10550       -0.79437        1.21006
H          1.56907        0.31284       -0.88593
H          0.20886        0.85359        0.12070
H          0.53196       -0.88979       -0.08086
H          2.34357        1.15587        1.39351
H          0.88940       -1.31708        2.44617
H          0.56336        0.98351        4.19908
H         -1.18593       -0.03768        1.90404
H         -1.71144        0.30590        4.90880
H         -2.80009       -0.31278        3.65878
H         -1.94535       -2.27423        4.71460
H         -1.07510       -2.21325        3.19394
H          3.19596       -1.04766        5.70841
H          2.97774       -2.48762        4.72988
H          2.87258        0.40455        3.97364
H          3.83781       -2.11447        2.67354
H          4.55217       -0.49541        2.74188
H          3.83791       -0.40969        0.61540

--Link1--
%chk=JID_3819.chk
%mem=8GB
%nprocshared=4
# B3LYP/6-311++G(d,p) empiricaldispersion=gd3bj scf=xqc pop=npa geom=check

CID_152797212_JID_3819_Energie_neutraal

0 1

--Link1--
%chk=JID_3819.chk
%mem=8GB
%nprocshared=4
# B3LYP/6-311++G(d,p) empiricaldispersion=gd3bj scf=xqc pop=npa geom=check

CID_152797212_JID_3819_Energie_kation

1 2

--Link1--
%chk=JID_3819.chk
%mem=8GB
%nprocshared=4
# B3LYP/6-311++G(d,p) empiricaldispersion=gd3bj scf=xqc pop=npa geom=check

CID_152797212_JID_3819_Energie_anion

-1 2
