%chk=JID_7876.chk
%mem=8GB
%nprocshared=4
# opt freq B3LYP/6-31G(d) empiricaldispersion=gd3bj scf=xqc

CID_68734497_JID_7876_neutraal

0 1
C          0.93101        0.02697       -0.06718
C          0.42434       -0.49222        1.26853
C         -0.01028       -0.93758        2.41431
C         -0.51695       -1.45677        3.75002
C         -1.85684       -0.81277        4.11250
C         -3.00836       -1.34337        3.26285
N         -3.05505       -2.80318        3.26183
C         -1.80401       -3.46199        2.87843
C         -0.63254       -2.98294        3.73042
C         -4.30407       -3.38740        3.01407
O         -5.32533       -2.74044        2.79237
C         -4.42279       -4.86314        3.05132
C         -5.06518       -5.51784        1.99620
C         -5.20974       -6.90513        2.02865
C         -4.72868       -7.63179        3.11953
C         -4.11123       -6.97474        4.18551
C         -3.96417       -5.58752        4.15807
H          0.57085        1.04622       -0.23216
H          0.57053       -0.61325       -0.87713
H          2.02450        0.03009       -0.07584
H          0.22656       -1.17021        4.50470
H         -2.07262       -1.03256        5.16642
H         -1.80378        0.27859        4.01945
H         -2.91952       -1.01067        2.22161
H         -3.95098       -0.94025        3.65056
H         -1.63396       -3.23983        1.81764
H         -1.88001       -4.54852        2.95164
H          0.29645       -3.43880        3.36750
H         -0.78147       -3.33549        4.75942
H         -5.45487       -4.94697        1.15666
H         -5.70587       -7.41824        1.20864
H         -4.84796       -8.71244        3.14471
H         -3.75464       -7.54317        5.04077
H         -3.50318       -5.07343        4.99730

--Link1--
%chk=JID_7876.chk
%mem=8GB
%nprocshared=4
# B3LYP/6-311++G(d,p) empiricaldispersion=gd3bj scf=xqc pop=npa geom=check

CID_68734497_JID_7876_Energie_neutraal

0 1

--Link1--
%chk=JID_7876.chk
%mem=8GB
%nprocshared=4
# B3LYP/6-311++G(d,p) empiricaldispersion=gd3bj scf=xqc pop=npa geom=check

CID_68734497_JID_7876_Energie_kation

1 2

--Link1--
%chk=JID_7876.chk
%mem=8GB
%nprocshared=4
# B3LYP/6-311++G(d,p) empiricaldispersion=gd3bj scf=xqc pop=npa geom=check

CID_68734497_JID_7876_Energie_anion

-1 2
