%chk=JID_5716.chk
%mem=8GB
%nprocshared=4
# opt freq B3LYP/6-31G(d) empiricaldispersion=gd3bj scf=xqc

CID_106728999_JID_5716_neutraal

0 1
C          1.04888       -0.06993       -0.05216
C          0.47330        1.33018       -0.19934
C          1.47160        2.28437       -0.84750
S         -1.15662        1.39059       -0.98984
O         -2.12868        1.39101        0.09087
O         -1.16602        2.47918       -1.95318
C         -1.44377       -0.13054       -1.90943
C         -1.24519        0.01043       -3.41800
C          0.24032        0.03762       -3.83648
C          0.68641       -1.37528       -4.24986
C          2.13138       -1.40474       -4.73148
C          2.34064       -0.42891       -5.88148
C          1.94445        0.98342       -5.47780
C          0.51105        1.07405       -4.94527
O          0.36397        2.40412       -4.44670
H          1.31781       -0.51493       -1.01285
H          0.33856       -0.73489        0.44982
H          1.95857       -0.04565        0.55815
H          0.28755        1.70919        0.81483
H          1.68213        2.01840       -1.88567
H          1.09297        3.31203       -0.83779
H          2.42115        2.28015       -0.30163
H         -0.87462       -0.95581       -1.48376
H         -2.50136       -0.36488       -1.73321
H         -1.74531       -0.83739       -3.90402
H         -1.78193        0.89425       -3.77919
H          0.84205        0.33706       -2.97682
H          0.03877       -1.75171       -5.05217
H          0.57506       -2.06271       -3.40263
H          2.39167       -2.41878       -5.05488
H          2.80184       -1.15055       -3.90124
H          1.74762       -0.74490       -6.74807
H          3.39223       -0.44300       -6.18914
H          2.06212        1.66289       -6.33090
H          2.64146        1.35281       -4.71303
H         -0.19765        0.93958       -5.77074
H         -0.39190        2.47047       -3.82965

--Link1--
%chk=JID_5716.chk
%mem=8GB
%nprocshared=4
# B3LYP/6-311++G(d,p) empiricaldispersion=gd3bj scf=xqc pop=npa geom=check

CID_106728999_JID_5716_Energie_neutraal

0 1

--Link1--
%chk=JID_5716.chk
%mem=8GB
%nprocshared=4
# B3LYP/6-311++G(d,p) empiricaldispersion=gd3bj scf=xqc pop=npa geom=check

CID_106728999_JID_5716_Energie_kation

1 2

--Link1--
%chk=JID_5716.chk
%mem=8GB
%nprocshared=4
# B3LYP/6-311++G(d,p) empiricaldispersion=gd3bj scf=xqc pop=npa geom=check

CID_106728999_JID_5716_Energie_anion

-1 2
