%chk=JID_9963.chk
%mem=8GB
%nprocshared=4
# opt freq B3LYP/6-31G(d) empiricaldispersion=gd3bj scf=xqc

CID_64570072_JID_9963_neutraal

0 1
C          0.93512       -0.06714        0.03582
C          0.48405       -0.79902        1.30463
C          1.16672       -0.11107        2.49889
C         -1.06573       -0.87378        1.50882
C         -1.86890       -0.72017        0.20752
C         -1.52838       -2.20063        2.17794
N         -0.85769       -2.46789        3.44670
C         -1.38646       -3.62415        4.16703
C         -1.17007       -4.92142        3.45843
C         -0.06577       -5.42557        2.77958
N         -0.44178       -6.67339        2.34834
N         -1.69179       -7.01971        2.68689
C         -2.13216       -5.95940        3.36220
C          1.25327       -4.87863        2.48691
C          1.70071       -4.79189        1.16136
C          2.94965       -4.23995        0.87006
C          3.76109       -3.77161        1.90118
C          3.32700       -3.85816        3.22310
C          2.07860       -4.41191        3.51590
H          0.56426        0.96305        0.01421
H          0.59046       -0.58257       -0.86599
H          2.02891       -0.02822       -0.02106
H          0.87714       -1.81935        1.23093
H          0.85771        0.93769        2.57390
H          0.93505       -0.59158        3.45134
H          2.25618       -0.13067        2.38414
H         -1.36911       -0.04566        2.16431
H         -1.60238       -1.49498       -0.51930
H         -2.94406       -0.80287        0.40255
H         -1.70600        0.26054       -0.24987
H         -2.61058       -2.13928        2.34990
H         -1.35766       -3.02429        1.47423
H          0.13388       -2.62173        3.27396
H         -0.88821       -3.67697        5.14237
H         -2.45204       -3.47160        4.37738
H          0.11755       -7.33866        1.82648
H         -3.13849       -5.97716        3.76222
H          1.06930       -5.12592        0.34093
H          3.28338       -4.16512       -0.16184
H          4.73088       -3.33572        1.67432
H          3.96001       -3.49174        4.02737
H          1.75417       -4.47245        4.55231

--Link1--
%chk=JID_9963.chk
%mem=8GB
%nprocshared=4
# B3LYP/6-311++G(d,p) empiricaldispersion=gd3bj scf=xqc pop=npa geom=check

CID_64570072_JID_9963_Energie_neutraal

0 1

--Link1--
%chk=JID_9963.chk
%mem=8GB
%nprocshared=4
# B3LYP/6-311++G(d,p) empiricaldispersion=gd3bj scf=xqc pop=npa geom=check

CID_64570072_JID_9963_Energie_kation

1 2

--Link1--
%chk=JID_9963.chk
%mem=8GB
%nprocshared=4
# B3LYP/6-311++G(d,p) empiricaldispersion=gd3bj scf=xqc pop=npa geom=check

CID_64570072_JID_9963_Energie_anion

-1 2
