%chk=JID_5038.chk
%mem=8GB
%nprocshared=4
# opt freq B3LYP/6-31G(d) empiricaldispersion=gd3bj scf=xqc

CID_81777968_JID_5038_neutraal

0 1
C          2.62500       -0.32100        0.00300
C          1.27072        0.29980       -0.10999
C          0.12581       -0.35775       -0.54061
S         -1.24620        0.67257       -0.54238
C         -0.33498        1.99531        0.02903
C          0.98743        1.66646        0.21691
C         -0.02728       -1.78679       -0.97059
N         -0.33762       -2.58307        0.19446
C         -0.60672       -3.91351        0.27633
O         -0.65836       -4.40500        1.41090
C         -0.95155       -4.78774       -0.94759
C         -2.47760       -4.87270       -1.15905
C         -3.13250       -3.61164       -1.66214
C         -3.71025       -3.48881       -2.86394
N         -0.20357       -4.43896       -2.17853
H          3.34606        0.37597        0.44217
H          2.58770       -1.21160        0.63863
H          2.99384       -0.61170       -0.98589
H         -0.80983        2.95147        0.20088
H          1.72355        2.37618        0.57606
H         -0.82292       -1.88759       -1.71240
H          0.90619       -2.15664       -1.40629
H         -0.11704       -2.18089        1.09680
H         -0.60169       -5.79184       -0.67011
H         -2.68719       -5.69825       -1.85235
H         -2.96131       -5.14206       -0.21129
H         -3.15007       -2.76225       -0.98027
H         -4.18062       -2.55512       -3.15946
H         -3.73944       -4.30960       -3.57403
H         -0.14773       -5.27717       -2.75857
H         -0.77443       -3.79602       -2.72914

--Link1--
%chk=JID_5038.chk
%mem=8GB
%nprocshared=4
# B3LYP/6-311++G(d,p) empiricaldispersion=gd3bj scf=xqc pop=npa geom=check

CID_81777968_JID_5038_Energie_neutraal

0 1

--Link1--
%chk=JID_5038.chk
%mem=8GB
%nprocshared=4
# B3LYP/6-311++G(d,p) empiricaldispersion=gd3bj scf=xqc pop=npa geom=check

CID_81777968_JID_5038_Energie_kation

1 2

--Link1--
%chk=JID_5038.chk
%mem=8GB
%nprocshared=4
# B3LYP/6-311++G(d,p) empiricaldispersion=gd3bj scf=xqc pop=npa geom=check

CID_81777968_JID_5038_Energie_anion

-1 2
