%chk=JID_6890.chk
%mem=8GB
%nprocshared=4
# opt freq B3LYP/6-31G(d) empiricaldispersion=gd3bj scf=xqc

CID_131589245_JID_6890_neutraal

0 1
C         -0.71700        1.22600        0.24100
C          0.72912        1.54414        0.64470
O          1.32081        0.45266        1.35776
C          1.30209       -0.73618        0.55640
C         -0.13654       -1.13190        0.14639
N         -0.83187       -0.01643       -0.54650
C         -0.93289       -1.64698        1.36777
C         -2.36773       -2.07170        1.03808
C         -2.44383       -3.32876        0.18428
O         -1.43414       -3.97570       -0.09780
N         -3.70769       -3.73289       -0.22524
C         -3.81929       -4.82408       -1.19502
C         -4.15889       -4.24442       -2.57454
O         -5.36001       -3.44914       -2.51892
C         -5.22580       -2.36950       -1.57546
C         -4.91748       -2.90715       -0.17162
H         -1.34135        1.14028        1.13723
H         -1.12462        2.05566       -0.34658
H          1.34305        1.77533       -0.23407
H          0.74709        2.41946        1.30169
H          1.76937       -1.53740        1.13867
H          1.92590       -0.57253       -0.33125
H         -0.04983       -1.95040       -0.57647
H         -0.35410        0.13395       -1.43680
H         -0.39594       -2.49663        1.80928
H         -0.97132       -0.87729        2.14813
H         -2.89267       -2.28323        1.97724
H         -2.88412       -1.24997        0.53409
H         -4.63175       -5.47471       -0.85118
H         -2.90289       -5.41915       -1.24458
H         -3.34164       -3.62069       -2.95551
H         -4.33025       -5.05392       -3.29053
H         -6.17043       -1.81732       -1.56686
H         -4.43790       -1.69118       -1.92352
H         -5.73101       -3.56269        0.16109
H         -4.83334       -2.09141        0.54781

--Link1--
%chk=JID_6890.chk
%mem=8GB
%nprocshared=4
# B3LYP/6-311++G(d,p) empiricaldispersion=gd3bj scf=xqc pop=npa geom=check

CID_131589245_JID_6890_Energie_neutraal

0 1

--Link1--
%chk=JID_6890.chk
%mem=8GB
%nprocshared=4
# B3LYP/6-311++G(d,p) empiricaldispersion=gd3bj scf=xqc pop=npa geom=check

CID_131589245_JID_6890_Energie_kation

1 2

--Link1--
%chk=JID_6890.chk
%mem=8GB
%nprocshared=4
# B3LYP/6-311++G(d,p) empiricaldispersion=gd3bj scf=xqc pop=npa geom=check

CID_131589245_JID_6890_Energie_anion

-1 2
