%chk=JID_7151.chk
%mem=8GB
%nprocshared=4
# opt freq B3LYP/6-31G(d) empiricaldispersion=gd3bj scf=xqc

CID_60836166_JID_7151_neutraal

0 1
C          0.90292        0.02284        0.00735
C          1.17094        1.23887       -0.87648
C          1.12029        0.95286       -2.38582
C         -0.15905        0.29263       -2.83778
O         -1.18120        0.98520       -2.94726
N         -0.29345       -1.02618       -3.13283
C          0.52183       -2.17204       -3.11397
C          1.84026       -2.24438       -2.67742
C          2.53593       -3.46191       -2.68457
C          1.93581       -4.62181       -3.16202
C          0.61734       -4.56769       -3.60094
C         -0.08107       -3.35596       -3.57097
O          3.83219       -3.40231       -2.25522
C          4.22487       -4.46720       -1.38258
C          5.23964       -3.91799       -0.39313
N          6.08147       -3.46237        0.42770
N          0.24546        2.31054       -0.48742
H         -0.09537       -0.39633       -0.15635
H          0.97705        0.29093        1.06793
H          1.64189       -0.76230       -0.17302
H          2.18073        1.59935       -0.64494
H          1.18584        1.90480       -2.93296
H          2.00120        0.41586       -2.72642
H         -1.24851       -1.18757       -3.43756
H          2.37983       -1.39530       -2.28943
H          2.47703       -5.56078       -3.21855
H          0.12943       -5.46401       -3.97666
H         -1.11118       -3.35227       -3.92330
H          3.37772       -4.86783       -0.81186
H          4.68481       -5.26656       -1.97294
H          0.46280        3.15911       -1.01089
H         -0.70299        2.06187       -0.78624

--Link1--
%chk=JID_7151.chk
%mem=8GB
%nprocshared=4
# B3LYP/6-311++G(d,p) empiricaldispersion=gd3bj scf=xqc pop=npa geom=check

CID_60836166_JID_7151_Energie_neutraal

0 1

--Link1--
%chk=JID_7151.chk
%mem=8GB
%nprocshared=4
# B3LYP/6-311++G(d,p) empiricaldispersion=gd3bj scf=xqc pop=npa geom=check

CID_60836166_JID_7151_Energie_kation

1 2

--Link1--
%chk=JID_7151.chk
%mem=8GB
%nprocshared=4
# B3LYP/6-311++G(d,p) empiricaldispersion=gd3bj scf=xqc pop=npa geom=check

CID_60836166_JID_7151_Energie_anion

-1 2
