%chk=JID_5712.chk
%mem=8GB
%nprocshared=4
# opt freq B3LYP/6-31G(d) empiricaldispersion=gd3bj scf=xqc

CID_115721488_JID_5712_neutraal

0 1
C          0.99758       -0.02117       -0.09770
C          0.68178       -0.35635       -1.56198
C          1.41229       -1.61586       -1.99661
N          2.25611       -1.51832       -3.05964
C          2.87256       -2.66165       -3.43837
C          2.66612       -3.86582       -2.79010
N          1.83663       -3.98266       -1.73137
C          1.22026       -2.83711       -1.35225
N         -0.78522       -0.40218       -1.72191
C         -1.25078       -0.22337       -3.09665
C         -1.27067       -1.47415       -3.98699
C         -2.08714       -2.66228       -3.46499
C         -3.58578       -2.41713       -3.27869
S         -4.59895       -2.80200       -4.74875
C         -4.31684       -1.32519       -5.75071
H          0.60285       -0.77312        0.59502
H          0.56303        0.94588        0.18073
H          2.07989        0.04340        0.06319
H          1.07297        0.48302       -2.15255
H          3.54136       -2.58249       -4.28739
H          3.16529       -4.77397       -3.10762
H          0.54936       -2.93750       -0.50624
H         -1.17656       -1.23691       -1.29642
H         -2.26879        0.17787       -3.04024
H         -0.66993        0.56272       -3.59517
H         -1.63967       -1.18060       -4.97347
H         -0.24586       -1.81546       -4.16169
H         -1.92346       -3.52264       -4.12639
H         -1.67265       -2.96435       -2.49599
H         -3.94126       -3.10670       -2.50435
H         -3.81516       -1.41135       -2.91804
H         -4.32824       -0.42147       -5.13669
H         -3.37028       -1.40497       -6.28861
H         -5.11527       -1.24635       -6.49396

--Link1--
%chk=JID_5712.chk
%mem=8GB
%nprocshared=4
# B3LYP/6-311++G(d,p) empiricaldispersion=gd3bj scf=xqc pop=npa geom=check

CID_115721488_JID_5712_Energie_neutraal

0 1

--Link1--
%chk=JID_5712.chk
%mem=8GB
%nprocshared=4
# B3LYP/6-311++G(d,p) empiricaldispersion=gd3bj scf=xqc pop=npa geom=check

CID_115721488_JID_5712_Energie_kation

1 2

--Link1--
%chk=JID_5712.chk
%mem=8GB
%nprocshared=4
# B3LYP/6-311++G(d,p) empiricaldispersion=gd3bj scf=xqc pop=npa geom=check

CID_115721488_JID_5712_Energie_anion

-1 2
