%chk=JID_10689.chk
%mem=8GB
%nprocshared=4
# opt freq B3LYP/6-31G(d) empiricaldispersion=gd3bj scf=xqc

CID_106716067_JID_10689_neutraal

0 1
C          0.93859        0.07562       -0.02259
C         -0.02744       -1.09958       -0.00504
C         -0.05672       -1.77254        1.33418
C         -0.81941       -1.44514        2.43475
C         -0.57520       -2.31623        3.53503
C          0.36471       -3.29542        3.25516
S          0.93774       -3.12946        1.64334
C          0.86408       -4.35656        4.13721
N          0.39613       -4.34569        5.39592
C          0.84410       -5.32248        6.20658
C          1.74360       -6.27943        5.78702
C          2.16862       -6.18835        4.48178
N          1.73894       -5.24621        3.64129
N          3.06023       -7.12627        3.96178
C          0.31131       -5.28984        7.55769
C          0.53051       -6.21302        8.56178
N         -0.17333       -5.77384        9.64783
N         -0.83556       -4.62577        9.42928
C         -0.54465       -4.33604        8.15779
C         -0.26133       -6.40667       10.94142
H          0.66244        0.82794        0.72415
H          0.93219        0.55612       -1.00609
H          1.96305       -0.24825        0.19010
H         -1.03466       -0.74145       -0.25092
H          0.24871       -1.81202       -0.79165
H         -1.51948       -0.61846        2.45404
H         -1.06864       -2.23386        4.49672
H          2.09871       -7.07136        6.42990
H          3.25930       -6.85262        3.00115
H          3.90916       -7.19157        4.51176
H          1.10507       -7.12707        8.60330
H         -0.96274       -3.44192        7.71238
H          0.13443       -5.71611       11.69028
H         -1.31102       -6.63400       11.14344
H          0.32562       -7.32836       10.93628

--Link1--
%chk=JID_10689.chk
%mem=8GB
%nprocshared=4
# B3LYP/6-311++G(d,p) empiricaldispersion=gd3bj scf=xqc pop=npa geom=check

CID_106716067_JID_10689_Energie_neutraal

0 1

--Link1--
%chk=JID_10689.chk
%mem=8GB
%nprocshared=4
# B3LYP/6-311++G(d,p) empiricaldispersion=gd3bj scf=xqc pop=npa geom=check

CID_106716067_JID_10689_Energie_kation

1 2

--Link1--
%chk=JID_10689.chk
%mem=8GB
%nprocshared=4
# B3LYP/6-311++G(d,p) empiricaldispersion=gd3bj scf=xqc pop=npa geom=check

CID_106716067_JID_10689_Energie_anion

-1 2
