%chk=JID_9972.chk
%mem=8GB
%nprocshared=4
# opt freq B3LYP/6-31G(d) empiricaldispersion=gd3bj scf=xqc

CID_61843407_JID_9972_neutraal

0 1
C          1.02184       -0.01794       -0.09592
S          0.42218       -1.60424        0.44157
O          0.39238       -1.57316        1.89170
O         -0.77586       -1.91264       -0.31323
C          1.71192       -2.74885       -0.03542
C          1.46077       -3.49155       -1.34555
C          1.48497       -2.62432       -2.60158
N          2.81019       -2.07926       -2.86494
C          3.29962       -1.45795       -3.98118
O          4.37336       -0.86667       -3.82293
C          2.61600       -1.55613       -5.36966
C          3.39696       -0.63038       -6.34536
C          2.85791       -0.47613       -7.76877
C          2.71320       -1.77137       -8.56250
C          1.50678       -2.59554       -8.13258
C          1.72349       -3.49284       -6.91863
C          2.70797       -3.02240       -5.84730
C          1.23464       -1.06341       -5.23305
N          0.14411       -0.68065       -5.12339
H          0.29106        0.73681        0.20291
H          1.13306       -0.01359       -1.17948
H          1.97836        0.17965        0.39149
H          2.66355       -2.21066       -0.02908
H          1.76031       -3.48692        0.77420
H          2.22197       -4.27579       -1.44498
H          0.49275       -4.00391       -1.29180
H          1.17338       -3.22967       -3.45615
H          0.78460       -1.79027       -2.52589
H          3.41289       -1.88205       -2.07354
H          3.45367        0.38039       -5.91506
H          4.43876       -0.97442       -6.41481
H          3.55460        0.17513       -8.31279
H          1.90273        0.06253       -7.75245
H          3.63459       -2.36335       -8.52652
H          2.56628       -1.49335       -9.61417
H          1.20561       -3.23881       -8.96967
H          0.64975       -1.93442       -7.95581
H          2.07516       -4.47057       -7.27459
H          0.74824       -3.69043       -6.45545
H          3.72969       -3.21145       -6.20677
H          2.60511       -3.71658       -5.00484

--Link1--
%chk=JID_9972.chk
%mem=8GB
%nprocshared=4
# B3LYP/6-311++G(d,p) empiricaldispersion=gd3bj scf=xqc pop=npa geom=check

CID_61843407_JID_9972_Energie_neutraal

0 1

--Link1--
%chk=JID_9972.chk
%mem=8GB
%nprocshared=4
# B3LYP/6-311++G(d,p) empiricaldispersion=gd3bj scf=xqc pop=npa geom=check

CID_61843407_JID_9972_Energie_kation

1 2

--Link1--
%chk=JID_9972.chk
%mem=8GB
%nprocshared=4
# B3LYP/6-311++G(d,p) empiricaldispersion=gd3bj scf=xqc pop=npa geom=check

CID_61843407_JID_9972_Energie_anion

-1 2
