%chk=JID_6618.chk
%mem=8GB
%nprocshared=4
# opt freq B3LYP/6-31G(d) empiricaldispersion=gd3bj scf=xqc

CID_108216158_JID_6618_neutraal

0 1
C          1.07276       -0.06079        0.03179
O          0.23176       -0.80398        0.91120
C          0.84669       -1.38812        1.98524
C          0.06348       -1.66985        3.11595
N          0.57093       -2.30226        4.21144
C          1.88161       -2.62117        4.20709
C          2.72101       -2.37973        3.13709
C          2.19105       -1.76353        2.00648
C         -1.41818       -1.29203        3.15979
C         -2.29648       -2.42067        2.61703
S         -2.48411       -3.86365        3.64710
O         -2.31708       -3.52675        5.04808
O         -3.70556       -4.52375        3.21072
C         -1.16377       -4.95654        3.17682
N         -1.81185       -0.77480        4.49954
N         -3.15235       -0.21756        4.44751
H          0.42774        0.53689       -0.61940
H          1.65681       -0.73354       -0.60394
H          1.72368        0.62753        0.58177
H          2.24519       -3.09972        5.11230
H          3.76529       -2.66937        3.17861
H          2.84511       -1.59660        1.15726
H         -1.53955       -0.43752        2.48019
H         -3.31602       -2.04714        2.45939
H         -1.94747       -2.77053        1.63877
H         -1.15628       -5.05778        2.09030
H         -0.21107       -4.58407        3.53959
H         -1.36190       -5.93033        3.63202
H         -1.74834       -1.57827        5.15180
H         -3.55426       -0.18156        5.39103
H         -3.11439        0.76210        4.14881

--Link1--
%chk=JID_6618.chk
%mem=8GB
%nprocshared=4
# B3LYP/6-311++G(d,p) empiricaldispersion=gd3bj scf=xqc pop=npa geom=check

CID_108216158_JID_6618_Energie_neutraal

0 1

--Link1--
%chk=JID_6618.chk
%mem=8GB
%nprocshared=4
# B3LYP/6-311++G(d,p) empiricaldispersion=gd3bj scf=xqc pop=npa geom=check

CID_108216158_JID_6618_Energie_kation

1 2

--Link1--
%chk=JID_6618.chk
%mem=8GB
%nprocshared=4
# B3LYP/6-311++G(d,p) empiricaldispersion=gd3bj scf=xqc pop=npa geom=check

CID_108216158_JID_6618_Energie_anion

-1 2
