%chk=JID_10745.chk
%mem=8GB
%nprocshared=4
# opt freq B3LYP/6-31G(d) empiricaldispersion=gd3bj scf=xqc

CID_98023_JID_10745_neutraal

0 1
C          0.97561        0.08495        0.04678
C          0.99455        0.76679       -1.31270
C          1.20960       -0.20288       -2.47708
C          0.15609       -1.30626       -2.61786
C         -1.28391       -0.81993       -2.81158
C         -1.52385        0.04918       -4.05071
C         -1.13681       -0.58984       -5.38871
C         -1.81642       -1.92750       -5.70053
C         -3.34650       -1.88674       -5.77206
C         -3.93306       -0.93231       -6.81789
C         -3.44078       -1.13995       -8.25526
C         -3.70639       -2.52594       -8.83996
N         -5.12733       -2.77602       -9.02454
C         -5.72077       -3.57054       -9.95935
O         -6.84704       -4.02014       -9.77605
C         -4.98398       -3.91017      -11.18799
C         -4.56477       -2.93975      -12.01092
C         -3.86980       -3.20554      -13.27260
O         -3.47126       -2.34087      -14.03076
O         -3.68324       -4.50886      -13.52642
H          0.10458       -0.56759        0.15664
H          0.92797        0.83562        0.84226
H          1.87949       -0.51309        0.19963
H          0.06702        1.33262       -1.45194
H          1.80874        1.50167       -1.32211
H          1.26528        0.37332       -3.40802
H          2.19104       -0.67984       -2.36004
H          0.44057       -1.95117       -3.45754
H          0.18755       -1.95255       -1.73261
H         -1.94210       -1.69597       -2.85144
H         -1.60197       -0.25748       -1.92580
H         -2.58342        0.33049       -4.07666
H         -0.97299        0.99148       -3.94478
H         -1.35296        0.12634       -6.19019
H         -0.05088       -0.73924       -5.41706
H         -1.41788       -2.30564       -6.64936
H         -1.52456       -2.66983       -4.94848
H         -3.71107       -2.90254       -5.96615
H         -3.75082       -1.61547       -4.78958
H         -5.02596       -1.02004       -6.79157
H         -3.71357        0.10140       -6.52466
H         -3.91908       -0.38613       -8.89367
H         -2.36439       -0.93944       -8.30188
H         -3.17643       -2.61622       -9.79061
H         -3.31911       -3.31994       -8.19399
H         -5.71540       -2.68882       -8.20348
H         -4.90609       -4.96537      -11.41913
H         -4.71788       -1.89038      -11.78418
H         -3.21947       -4.51765      -14.38974

--Link1--
%chk=JID_10745.chk
%mem=8GB
%nprocshared=4
# B3LYP/6-311++G(d,p) empiricaldispersion=gd3bj scf=xqc pop=npa geom=check

CID_98023_JID_10745_Energie_neutraal

0 1

--Link1--
%chk=JID_10745.chk
%mem=8GB
%nprocshared=4
# B3LYP/6-311++G(d,p) empiricaldispersion=gd3bj scf=xqc pop=npa geom=check

CID_98023_JID_10745_Energie_kation

1 2

--Link1--
%chk=JID_10745.chk
%mem=8GB
%nprocshared=4
# B3LYP/6-311++G(d,p) empiricaldispersion=gd3bj scf=xqc pop=npa geom=check

CID_98023_JID_10745_Energie_anion

-1 2
