%chk=JID_8992.chk
%mem=8GB
%nprocshared=4
# opt freq B3LYP/6-31G(d) empiricaldispersion=gd3bj scf=xqc

CID_105326742_JID_8992_neutraal

0 1
C          1.04065       -0.04449        0.07980
C          0.69503        0.30937       -1.35909
C          1.19634       -0.72411       -2.37608
C          0.58725       -2.14519       -2.25311
C         -0.96827       -2.12562       -2.32896
C         -1.64567       -1.39958       -3.49783
C         -1.54391       -2.09868       -4.84170
C          1.27086       -3.14950       -3.24862
C          2.81029       -3.28879       -3.06370
C          3.23809       -3.62805       -1.66619
N          3.54832       -2.73094       -0.75481
C          3.88319       -3.34876        0.43848
C          3.82888       -4.73192        0.41009
S          3.36547       -5.26126       -1.15244
C          4.11282       -5.70973        1.49450
C          4.24465       -2.48025        1.58912
N          0.59038       -4.46865       -3.16438
N          0.88771       -5.26204       -4.33491
H          0.52125       -0.94892        0.40880
H          0.74234        0.76988        0.74788
H          2.11750       -0.19959        0.19802
H         -0.38490        0.46106       -1.45155
H          1.15997        1.27418       -1.59663
H          1.01570       -0.33864       -3.38687
H          2.28458       -0.77078       -2.26854
H          0.81065       -2.51341       -1.24311
H         -1.36456       -3.14606       -2.26698
H         -1.32939       -1.64471       -1.40958
H         -2.71271       -1.31788       -3.25250
H         -1.28307       -0.37117       -3.58999
H         -1.78359       -3.16288       -4.75888
H         -2.25116       -1.65038       -5.54777
H         -0.54947       -1.98901       -5.27820
H          1.12478       -2.75160       -4.25868
H          3.21177       -4.03205       -3.76482
H          3.29640       -2.34987       -3.35569
H          5.16899       -5.66216        1.77911
H          3.50854       -5.48139        2.37875
H          3.89011       -6.73951        1.19699
H          4.96948       -1.72132        1.27797
H          3.35344       -1.97102        1.96876
H          4.68805       -3.05333        2.40868
H          0.88976       -4.93411       -2.29886
H          0.45758       -6.18957       -4.25804
H          0.44956       -4.85177       -5.16654

--Link1--
%chk=JID_8992.chk
%mem=8GB
%nprocshared=4
# B3LYP/6-311++G(d,p) empiricaldispersion=gd3bj scf=xqc pop=npa geom=check

CID_105326742_JID_8992_Energie_neutraal

0 1

--Link1--
%chk=JID_8992.chk
%mem=8GB
%nprocshared=4
# B3LYP/6-311++G(d,p) empiricaldispersion=gd3bj scf=xqc pop=npa geom=check

CID_105326742_JID_8992_Energie_kation

1 2

--Link1--
%chk=JID_8992.chk
%mem=8GB
%nprocshared=4
# B3LYP/6-311++G(d,p) empiricaldispersion=gd3bj scf=xqc pop=npa geom=check

CID_105326742_JID_8992_Energie_anion

-1 2
