%chk=JID_9256.chk
%mem=8GB
%nprocshared=4
# opt freq B3LYP/6-31G(d) empiricaldispersion=gd3bj scf=xqc

CID_114708228_JID_9256_neutraal

0 1
C          1.06014        0.01008       -0.07926
C          0.10767       -0.15166       -1.25831
C          0.64569       -1.16900       -2.28677
C          0.60576       -2.62516       -1.78837
C         -0.40493       -3.11610       -0.94149
C         -0.41041       -4.45024       -0.52642
C          0.58484       -5.32080       -0.95920
C          1.58589       -4.85968       -1.80975
C          1.59718       -3.52474       -2.22173
N          0.04349       -1.00942       -3.62583
C         -0.80779       -1.92287       -4.20646
N         -1.10905       -1.61935       -5.44272
C         -0.46059       -0.44787       -5.67935
C          0.25589       -0.00435       -4.57362
C          0.97841        1.32999       -4.43662
C          1.62017        1.75628       -5.78129
C         -0.08794        2.40847       -4.10568
N          1.97462        1.34236       -3.35206
C          3.27328        0.76367       -3.67858
H          1.16819       -0.92125        0.48435
H          0.67765        0.77169        0.60804
H          2.05311        0.32843       -0.41198
H         -0.89342       -0.41432       -0.90220
H         -0.01151        0.83393       -1.70750
H          1.70910       -0.96458       -2.43707
H         -1.21462       -2.47896       -0.59649
H         -1.19875       -4.81033        0.13034
H          0.57502       -6.35979       -0.64034
H          2.35645       -5.54223       -2.15898
H          2.38307       -3.19214       -2.89756
H         -1.16684       -2.80771       -3.69582
H         -0.56558        0.04878       -6.63538
H          0.86281        1.94144       -6.55228
H          2.18639        2.68945       -5.67076
H          2.29652        0.98978       -6.17665
H         -0.64314        2.18534       -3.18977
H          0.36574        3.39974       -3.98645
H         -0.83289        2.48849       -4.90765
H          2.12664        2.30424       -3.04814
H          3.85056        1.41049       -4.34614
H          3.85201        0.65570       -2.75532
H          3.18427       -0.23075       -4.12607

--Link1--
%chk=JID_9256.chk
%mem=8GB
%nprocshared=4
# B3LYP/6-311++G(d,p) empiricaldispersion=gd3bj scf=xqc pop=npa geom=check

CID_114708228_JID_9256_Energie_neutraal

0 1

--Link1--
%chk=JID_9256.chk
%mem=8GB
%nprocshared=4
# B3LYP/6-311++G(d,p) empiricaldispersion=gd3bj scf=xqc pop=npa geom=check

CID_114708228_JID_9256_Energie_kation

1 2

--Link1--
%chk=JID_9256.chk
%mem=8GB
%nprocshared=4
# B3LYP/6-311++G(d,p) empiricaldispersion=gd3bj scf=xqc pop=npa geom=check

CID_114708228_JID_9256_Energie_anion

-1 2
