%chk=JID_10739.chk
%mem=8GB
%nprocshared=4
# opt freq B3LYP/6-31G(d) empiricaldispersion=gd3bj scf=xqc

CID_100113909_JID_10739_neutraal

0 1
C         -2.37200       -0.01600        0.01400
C         -0.87795        0.04650       -0.01438
N         -0.19604       -0.62500        0.93593
C          1.15179       -0.52115        0.89965
C          1.82331        0.25252       -0.01783
C          1.03984        0.86735       -0.96864
N         -0.30878        0.79390       -0.98131
C          3.28474        0.34618       -0.00108
O          3.93289       -0.68875        0.13849
N          3.92798        1.54106       -0.23134
C          3.49957        2.87092       -0.06617
C          4.26012        3.87135       -0.67498
C          3.89188        5.22193       -0.57413
C          2.76568        5.59737        0.15315
C          2.04520        4.59679        0.81631
C          2.40659        3.24789        0.71032
N          2.29994        6.91198        0.32015
C          2.58886        8.10111       -0.27751
O          2.05806        9.12050        0.17310
C          3.49109        8.18557       -1.47241
H         -2.75112       -0.35456       -0.95484
H         -2.72189       -0.71062        0.78373
H         -2.78120        0.97564        0.22845
H          1.68217       -1.08444        1.66279
H          1.47183        1.46011       -1.76962
H          4.90179        1.40801       -0.48537
H          5.14410        3.61804       -1.25666
H          4.53909        5.94128       -1.05753
H          1.17882        4.84846        1.42542
H          1.82771        2.53013        1.28227
H          1.57991        7.04400        1.02292
H          4.53557        8.12885       -1.15871
H          3.24652        7.41070       -2.20254
H          3.33641        9.15098       -1.96561

--Link1--
%chk=JID_10739.chk
%mem=8GB
%nprocshared=4
# B3LYP/6-311++G(d,p) empiricaldispersion=gd3bj scf=xqc pop=npa geom=check

CID_100113909_JID_10739_Energie_neutraal

0 1

--Link1--
%chk=JID_10739.chk
%mem=8GB
%nprocshared=4
# B3LYP/6-311++G(d,p) empiricaldispersion=gd3bj scf=xqc pop=npa geom=check

CID_100113909_JID_10739_Energie_kation

1 2

--Link1--
%chk=JID_10739.chk
%mem=8GB
%nprocshared=4
# B3LYP/6-311++G(d,p) empiricaldispersion=gd3bj scf=xqc pop=npa geom=check

CID_100113909_JID_10739_Energie_anion

-1 2
