%chk=JID_3050.chk
%mem=8GB
%nprocshared=4
# opt freq B3LYP/6-31G(d) empiricaldispersion=gd3bj scf=xqc

CID_82935094_JID_3050_neutraal

0 1
C          1.01922        0.06566        0.07294
C          0.68060        1.47990       -0.37868
C          1.38629        1.90234       -1.68544
C          1.10550        0.95919       -2.87638
C         -0.36059        0.82292       -3.26462
C          1.03569        3.35953       -2.05940
N          1.56349        4.34584       -1.13731
C          0.89023        5.16750       -0.26658
C          1.90688        5.88254        0.31578
N          3.11023        5.51340       -0.19527
N          2.89108        4.57289       -1.10394
N          1.79353        6.83149        1.24941
C         -0.57549        5.17545       -0.08485
H          0.61655       -0.68443       -0.61364
H          0.58499       -0.12594        1.05961
H          2.10214       -0.07458        0.14713
H         -0.40648        1.57612       -0.48064
H          0.97614        2.16204        0.42739
H          2.46855        1.85077       -1.50067
H          1.66363        1.31721       -3.75092
H          1.50663       -0.03749       -2.65865
H         -0.79245        1.78569       -3.55208
H         -0.45602        0.14911       -4.12253
H         -0.95680        0.40376       -2.44931
H          1.45036        3.61438       -3.04271
H         -0.04827        3.49841       -2.12188
H          0.91302        7.29856        1.42269
H          2.61035        7.40127        1.44350
H         -0.94163        4.17866        0.17994
H         -0.87540        5.86039        0.71428
H         -1.07593        5.49682       -1.00389

--Link1--
%chk=JID_3050.chk
%mem=8GB
%nprocshared=4
# B3LYP/6-311++G(d,p) empiricaldispersion=gd3bj scf=xqc pop=npa geom=check

CID_82935094_JID_3050_Energie_neutraal

0 1

--Link1--
%chk=JID_3050.chk
%mem=8GB
%nprocshared=4
# B3LYP/6-311++G(d,p) empiricaldispersion=gd3bj scf=xqc pop=npa geom=check

CID_82935094_JID_3050_Energie_kation

1 2

--Link1--
%chk=JID_3050.chk
%mem=8GB
%nprocshared=4
# B3LYP/6-311++G(d,p) empiricaldispersion=gd3bj scf=xqc pop=npa geom=check

CID_82935094_JID_3050_Energie_anion

-1 2
