%chk=JID_10788.chk
%mem=8GB
%nprocshared=4
# opt freq B3LYP/6-31G(d) empiricaldispersion=gd3bj scf=xqc

CID_61884393_JID_10788_neutraal

0 1
C          1.07579        0.02905        0.05841
C         -0.16403       -0.72203       -0.45525
C         -0.00281       -2.21720       -0.11343
C         -1.41136       -0.19463        0.27257
C         -0.29627       -0.59422       -1.99818
N         -0.37009        0.80761       -2.45146
C          0.79738        1.32351       -3.15911
C         -1.62957        1.34236       -2.72673
N         -2.67343        0.46929       -2.70148
C         -3.93133        0.86338       -2.96922
C         -4.96427       -0.06330       -2.92277
C         -6.28817        0.29653       -3.19213
C         -6.59396        1.61274       -3.51846
C         -5.57552        2.56167       -3.57047
C         -4.24693        2.18970       -3.29495
C         -3.19893        3.10720       -3.31529
C         -1.89272        2.68635       -3.01935
C         -0.88767        3.75224       -2.94210
O         -0.27540        4.12729       -1.96279
O         -0.73652        4.34179       -4.14457
H          1.22148       -0.13773        1.13190
H          0.98449        1.11006       -0.09255
H          1.98314       -0.30730       -0.45554
H          0.09632       -2.37026        0.96718
H         -0.86930       -2.79576       -0.45322
H          0.88889       -2.63899       -0.59097
H         -1.53937        0.88333        0.13079
H         -2.31836       -0.69627       -0.08204
H         -1.33956       -0.37034        1.35225
H          0.57787       -1.07774       -2.45596
H         -1.13760       -1.20066       -2.35674
H          0.56709        1.56387       -4.20292
H          1.20045        2.20583       -2.65546
H          1.61835        0.59776       -3.17683
H         -4.73078       -1.09402       -2.66639
H         -7.07345       -0.45339       -3.14423
H         -7.62107        1.89978       -3.72838
H         -5.82132        3.59081       -3.82201
H         -3.39032        4.15460       -3.53619
H         -0.07401        5.04576       -3.98174

--Link1--
%chk=JID_10788.chk
%mem=8GB
%nprocshared=4
# B3LYP/6-311++G(d,p) empiricaldispersion=gd3bj scf=xqc pop=npa geom=check

CID_61884393_JID_10788_Energie_neutraal

0 1

--Link1--
%chk=JID_10788.chk
%mem=8GB
%nprocshared=4
# B3LYP/6-311++G(d,p) empiricaldispersion=gd3bj scf=xqc pop=npa geom=check

CID_61884393_JID_10788_Energie_kation

1 2

--Link1--
%chk=JID_10788.chk
%mem=8GB
%nprocshared=4
# B3LYP/6-311++G(d,p) empiricaldispersion=gd3bj scf=xqc pop=npa geom=check

CID_61884393_JID_10788_Energie_anion

-1 2
