%chk=JID_1469.chk
%mem=8GB
%nprocshared=4
# opt freq B3LYP/6-31G(d) empiricaldispersion=gd3bj scf=xqc

CID_146736990_JID_1469_neutraal

0 1
C          1.02925       -0.08661       -0.04053
C          0.50646       -0.19430        1.39581
C          0.08167        1.20014        1.89127
C         -0.88550        1.17441        3.07903
C         -1.90675        0.01475        3.01548
C         -1.40848       -1.21493        3.80230
C         -0.57171       -2.01920        2.80332
C         -0.63897       -1.23773        1.47878
C         -2.00200       -0.55012        1.59236
N         -3.25699        0.47387        3.47858
O         -3.31518        0.61711        4.70565
H          0.23675        0.22082       -0.73132
H          1.42186       -1.05006       -0.38272
H          1.84085        0.64594       -0.10500
H          1.35071       -0.53173        2.01060
H          0.96844        1.79200        2.14951
H         -0.40609        1.74591        1.07192
H         -1.39582        2.14670        3.10850
H         -0.30946        1.12282        4.01169
H         -2.24096       -1.83939        4.15239
H         -0.82393       -0.94524        4.68875
H         -1.02362       -3.01024        2.67217
H          0.45053       -2.17999        3.15978
H         -0.60034       -1.93299        0.63329
H         -2.17044        0.21206        0.82376
H         -2.81215       -1.28664        1.50258

--Link1--
%chk=JID_1469.chk
%mem=8GB
%nprocshared=4
# B3LYP/6-311++G(d,p) empiricaldispersion=gd3bj scf=xqc pop=npa geom=check

CID_146736990_JID_1469_Energie_neutraal

0 1

--Link1--
%chk=JID_1469.chk
%mem=8GB
%nprocshared=4
# B3LYP/6-311++G(d,p) empiricaldispersion=gd3bj scf=xqc pop=npa geom=check

CID_146736990_JID_1469_Energie_kation

1 2

--Link1--
%chk=JID_1469.chk
%mem=8GB
%nprocshared=4
# B3LYP/6-311++G(d,p) empiricaldispersion=gd3bj scf=xqc pop=npa geom=check

CID_146736990_JID_1469_Energie_anion

-1 2
