%chk=JID_2908.chk
%mem=8GB
%nprocshared=4
# opt freq B3LYP/6-31G(d) empiricaldispersion=gd3bj scf=xqc

CID_131143991_JID_2908_neutraal

0 1
C          0.95035        0.07578       -0.04234
C          0.59732        0.95032        1.13207
C          0.00650        2.14443        0.94667
C          0.93698        0.43735        2.51761
C          0.06515       -0.80196        2.94330
N          0.83041       -1.98441        3.42522
C         -0.01601       -2.81085        4.30361
C          0.75492       -4.01623        4.84441
C          1.32949       -4.86127        3.71451
C          2.12625       -3.98969        2.75230
C          1.30289       -2.79054        2.28008
N          2.38403        0.20371        2.62227
H          0.67469        0.54254       -0.99450
H          0.42261       -0.88076        0.01291
H          2.02675       -0.11821       -0.07773
H         -0.24745        2.79165        1.78044
H         -0.22923        2.51261       -0.04748
H          0.70972        1.22173        3.25354
H         -0.55839       -0.44067        3.77377
H         -0.64249       -1.09373        2.15620
H         -0.91426       -3.15236        3.77236
H         -0.35088       -2.21594        5.16210
H          0.09297       -4.63064        5.46503
H          1.57010       -3.66968        5.49232
H          1.96702       -5.65340        4.12190
H          0.51183       -5.35178        3.17215
H          3.04038       -3.63663        3.24624
H          2.43975       -4.58607        1.88796
H          1.93753       -2.19552        1.61643
H          0.45493       -3.14424        1.67834
H          2.82271        1.02411        3.03158
H          2.49939       -0.55748        3.29878

--Link1--
%chk=JID_2908.chk
%mem=8GB
%nprocshared=4
# B3LYP/6-311++G(d,p) empiricaldispersion=gd3bj scf=xqc pop=npa geom=check

CID_131143991_JID_2908_Energie_neutraal

0 1

--Link1--
%chk=JID_2908.chk
%mem=8GB
%nprocshared=4
# B3LYP/6-311++G(d,p) empiricaldispersion=gd3bj scf=xqc pop=npa geom=check

CID_131143991_JID_2908_Energie_kation

1 2

--Link1--
%chk=JID_2908.chk
%mem=8GB
%nprocshared=4
# B3LYP/6-311++G(d,p) empiricaldispersion=gd3bj scf=xqc pop=npa geom=check

CID_131143991_JID_2908_Energie_anion

-1 2
