%chk=JID_8446.chk
%mem=8GB
%nprocshared=4
# opt freq B3LYP/6-31G(d) empiricaldispersion=gd3bj scf=xqc

CID_128476990_JID_8446_neutraal

0 1
C          1.07676        0.05913        0.02472
S          0.09908        0.81991        1.29765
O         -0.96183        1.60163        0.70282
O         -0.13455       -0.13738        2.36449
C          1.18529        1.98051        1.98195
C          2.04915        1.71346        3.02247
S          3.06278        3.04256        3.35216
C          2.33903        3.99029        2.12638
C          1.34973        3.30122        1.46122
N          2.08800        0.58791        3.82859
C          3.21596        0.11414        4.47492
O          4.36582        0.50170        4.29201
C          2.89167       -0.96227        5.50717
C          2.60996       -0.26151        6.84471
C          2.30567       -1.22650        7.98871
C          3.42336       -2.22766        8.24937
S          3.72770       -3.26962        6.79536
C          4.05741       -1.94652        5.59204
H          0.45909       -0.69531       -0.46723
H          1.94877       -0.41509        0.47914
H          1.37775        0.81989       -0.69791
H          2.67697        5.00326        1.95301
H          0.77428        3.72282        0.64435
H          1.27946       -0.03268        3.76020
H          1.99228       -1.50351        5.18345
H          3.46980        0.36342        7.12204
H          1.76315        0.42700        6.72958
H          2.13996       -0.64197        8.90206
H          1.36561       -1.75468        7.78572
H          4.35232       -1.71364        8.51855
H          3.15304       -2.87720        9.08777
H          4.22654       -2.41399        4.61546
H          4.99176       -1.44889        5.87431

--Link1--
%chk=JID_8446.chk
%mem=8GB
%nprocshared=4
# B3LYP/6-311++G(d,p) empiricaldispersion=gd3bj scf=xqc pop=npa geom=check

CID_128476990_JID_8446_Energie_neutraal

0 1

--Link1--
%chk=JID_8446.chk
%mem=8GB
%nprocshared=4
# B3LYP/6-311++G(d,p) empiricaldispersion=gd3bj scf=xqc pop=npa geom=check

CID_128476990_JID_8446_Energie_kation

1 2

--Link1--
%chk=JID_8446.chk
%mem=8GB
%nprocshared=4
# B3LYP/6-311++G(d,p) empiricaldispersion=gd3bj scf=xqc pop=npa geom=check

CID_128476990_JID_8446_Energie_anion

-1 2
