%chk=JID_3339.chk
%mem=8GB
%nprocshared=4
# opt freq B3LYP/6-31G(d) empiricaldispersion=gd3bj scf=xqc

CID_145710978_JID_3339_neutraal

0 1
C          1.05338       -0.06319       -0.05619
C         -0.09576        0.88959        0.27709
C         -0.01670        2.12969       -0.61537
C         -1.46984        0.21488        0.11299
N         -1.72098       -0.85081        1.07167
C         -1.94448       -2.18581        0.83772
C         -2.14074       -2.74080        2.09139
C         -2.03964       -1.67593        2.99558
N         -1.79628       -0.51929        2.38252
S         -1.95297       -2.88171       -0.76477
O         -3.09225       -2.30973       -1.43808
O         -0.60350       -2.76421       -1.25722
N         -2.26352       -4.51949       -0.60003
H          0.99145       -0.41312       -1.09192
H          1.04892       -0.93755        0.60214
H          2.01916        0.43790        0.07054
H          0.02772        1.21779        1.31690
H         -0.12813        1.86675       -1.67286
H         -0.80575        2.84434       -0.35840
H          0.94571        2.63755       -0.49179
H         -2.27343        0.94641        0.26658
H         -1.58515       -0.17344       -0.90184
H         -2.34042       -3.78112        2.30568
H         -2.13791       -1.68961        4.07372
H         -3.13338       -4.74551       -1.08520
H         -1.46937       -5.04881       -0.96373

--Link1--
%chk=JID_3339.chk
%mem=8GB
%nprocshared=4
# B3LYP/6-311++G(d,p) empiricaldispersion=gd3bj scf=xqc pop=npa geom=check

CID_145710978_JID_3339_Energie_neutraal

0 1

--Link1--
%chk=JID_3339.chk
%mem=8GB
%nprocshared=4
# B3LYP/6-311++G(d,p) empiricaldispersion=gd3bj scf=xqc pop=npa geom=check

CID_145710978_JID_3339_Energie_kation

1 2

--Link1--
%chk=JID_3339.chk
%mem=8GB
%nprocshared=4
# B3LYP/6-311++G(d,p) empiricaldispersion=gd3bj scf=xqc pop=npa geom=check

CID_145710978_JID_3339_Energie_anion

-1 2
