%chk=JID_6139.chk
%mem=8GB
%nprocshared=4
# opt freq B3LYP/6-31G(d) empiricaldispersion=gd3bj scf=xqc

CID_65378906_JID_6139_neutraal

0 1
C          0.91336       -0.00885       -0.04915
C          0.36016       -1.19055        0.69152
C          0.91335       -1.23684        2.10796
C          0.45216       -0.01709        2.94015
C          0.41567       -2.51654        2.85810
C          0.62746       -3.91784        2.30090
C         -0.21913       -4.94075        2.77221
C         -0.04604       -6.26934        2.34968
C          0.97240       -6.60375        1.45446
C          1.82287       -5.60251        0.99450
C          1.65813       -4.27853        1.42092
N         -0.93538       -7.31862        2.86327
O         -1.82438       -6.98246        3.65849
O         -0.74633       -8.47930        2.47089
C          2.43335       -1.23684        2.10796
N          3.69432       -1.23684        2.10796
H          0.63162        0.94606        0.40312
H          0.50452        0.00244       -1.06652
H          2.00168       -0.03816       -0.15647
H         -0.73521       -1.13402        0.71020
H          0.61539       -2.09100        0.12360
H         -0.63837        0.08711        2.91762
H          0.75450       -0.11819        3.98995
H          0.89158        0.92060        2.58348
H          0.85591       -2.52612        3.86629
H         -0.66876       -2.39613        2.99965
H         -1.00842       -4.69524        3.48243
H          1.12344       -7.62711        1.11803
H          2.63076       -5.84976        0.30788
H          2.37191       -3.55380        1.03946

--Link1--
%chk=JID_6139.chk
%mem=8GB
%nprocshared=4
# B3LYP/6-311++G(d,p) empiricaldispersion=gd3bj scf=xqc pop=npa geom=check

CID_65378906_JID_6139_Energie_neutraal

0 1

--Link1--
%chk=JID_6139.chk
%mem=8GB
%nprocshared=4
# B3LYP/6-311++G(d,p) empiricaldispersion=gd3bj scf=xqc pop=npa geom=check

CID_65378906_JID_6139_Energie_kation

1 2

--Link1--
%chk=JID_6139.chk
%mem=8GB
%nprocshared=4
# B3LYP/6-311++G(d,p) empiricaldispersion=gd3bj scf=xqc pop=npa geom=check

CID_65378906_JID_6139_Energie_anion

-1 2
