%chk=JID_8528.chk
%mem=8GB
%nprocshared=4
# opt freq B3LYP/6-31G(d) empiricaldispersion=gd3bj scf=xqc

CID_113852229_JID_8528_neutraal

0 1
C          0.93752       -0.05607       -0.05433
C          0.73580       -1.21341        0.84215
C          1.15338       -2.51075        0.68387
N          0.70676       -3.18520        1.79424
C          0.03612       -2.27124        2.60106
N          0.05343       -1.08433        2.02116
N         -0.57714       -2.39861        3.79996
C         -0.83217       -3.49778        4.70332
C          0.44909       -4.02105        5.35798
C          0.21343       -5.26834        6.20159
C         -0.61564       -6.31800        5.46599
C         -1.98518       -5.79045        4.98553
C         -1.79659       -4.53270        4.10700
C         -2.89752       -5.47181        6.18686
C         -2.67462       -6.88580        4.14900
C          0.94864       -4.60257        1.98943
C          0.98120       -5.58934        0.83158
C          2.24404       -5.27104        1.55353
H          0.45286        0.83997        0.34571
H          0.51466       -0.25847       -1.04325
H          2.00468        0.15706       -0.17015
H          1.71213       -2.98810       -0.10644
H         -0.97854       -1.51645        4.11187
H         -1.39378       -3.04877        5.53559
H          0.87371       -3.23552        5.99747
H          1.23375       -4.22841        4.62739
H         -0.27984       -4.98910        7.13941
H          1.18068       -5.70059        6.48422
H         -0.75729       -7.18392        6.12508
H         -0.03785       -6.67966        4.60520
H         -1.47935       -4.83423        3.10551
H         -2.77095       -4.05092        3.94080
H         -2.50258       -4.66424        6.80991
H         -3.89427       -5.16309        5.85122
H         -3.02356       -6.35197        6.82766
H         -3.64837       -6.54630        3.77815
H         -2.06700       -7.16404        3.28038
H         -2.83954       -7.79220        4.74239
H          0.52770       -4.99687        2.89604
H          0.53218       -6.56381        0.99311
H          0.85873       -5.22462       -0.18145
H          2.99817       -4.68318        1.04351
H          2.66145       -6.02670        2.21079

--Link1--
%chk=JID_8528.chk
%mem=8GB
%nprocshared=4
# B3LYP/6-311++G(d,p) empiricaldispersion=gd3bj scf=xqc pop=npa geom=check

CID_113852229_JID_8528_Energie_neutraal

0 1

--Link1--
%chk=JID_8528.chk
%mem=8GB
%nprocshared=4
# B3LYP/6-311++G(d,p) empiricaldispersion=gd3bj scf=xqc pop=npa geom=check

CID_113852229_JID_8528_Energie_kation

1 2

--Link1--
%chk=JID_8528.chk
%mem=8GB
%nprocshared=4
# B3LYP/6-311++G(d,p) empiricaldispersion=gd3bj scf=xqc pop=npa geom=check

CID_113852229_JID_8528_Energie_anion

-1 2
