%chk=JID_7817.chk
%mem=8GB
%nprocshared=4
# opt freq B3LYP/6-31G(d) empiricaldispersion=gd3bj scf=xqc

CID_112754180_JID_7817_neutraal

0 1
C          0.33400        1.00600       -0.17300
C          0.65322       -0.44429        0.24516
C         -0.69995       -0.84897       -0.39960
C         -1.15596        0.61305       -0.13273
C         -1.46514       -1.96341        0.30032
C         -2.81908       -2.11482       -0.28429
N         -3.90974       -1.58508        0.28009
O         -4.92644       -1.93316       -0.61204
C         -4.34124       -2.64376       -1.62919
N         -3.03958       -2.78280       -1.46029
C         -5.06884       -3.15603       -2.75004
C         -4.60037       -3.92016       -3.80677
C         -5.69789       -4.17130       -4.66479
C         -6.78529       -3.54862       -4.09103
O         -6.40915       -2.93005       -2.93592
C         -8.21222       -3.42007       -4.48223
N         -8.93643       -4.66215       -4.23530
H          0.69513        1.26643       -1.17456
H          0.64094        1.78328        0.53096
H          1.54554       -0.88184       -0.20997
H          0.70206       -0.58566        1.33132
H         -0.58256       -1.05485       -1.47471
H         -1.62410        0.77329        0.84567
H         -1.78424        1.06300       -0.90579
H         -0.92064       -2.90884        0.19091
H         -1.54030       -1.76694        1.37684
H         -3.57864       -4.25329       -3.93174
H         -5.69795       -4.73695       -5.58583
H         -8.68708       -2.60914       -3.91954
H         -8.28006       -3.16231       -5.54490
H         -9.89881       -4.55315       -4.54714
H         -8.52982       -5.40749       -4.79601

--Link1--
%chk=JID_7817.chk
%mem=8GB
%nprocshared=4
# B3LYP/6-311++G(d,p) empiricaldispersion=gd3bj scf=xqc pop=npa geom=check

CID_112754180_JID_7817_Energie_neutraal

0 1

--Link1--
%chk=JID_7817.chk
%mem=8GB
%nprocshared=4
# B3LYP/6-311++G(d,p) empiricaldispersion=gd3bj scf=xqc pop=npa geom=check

CID_112754180_JID_7817_Energie_kation

1 2

--Link1--
%chk=JID_7817.chk
%mem=8GB
%nprocshared=4
# B3LYP/6-311++G(d,p) empiricaldispersion=gd3bj scf=xqc pop=npa geom=check

CID_112754180_JID_7817_Energie_anion

-1 2
