%chk=JID_8126.chk
%mem=8GB
%nprocshared=4
# opt freq B3LYP/6-31G(d) empiricaldispersion=gd3bj scf=xqc

CID_127576123_JID_8126_neutraal

0 1
C          1.03239        0.03540        0.08774
C          0.30566        0.62277        1.29953
C          0.56631        2.13007        1.37094
C         -1.21044        0.35843        1.24053
C         -1.59260       -1.11891        1.33803
N         -1.45778       -1.63994        2.68330
C         -2.28217       -1.75508        3.73255
O         -1.83284       -2.25233        4.76744
N         -3.56491       -1.37061        3.72306
C         -4.41661       -0.74095        2.73284
C         -4.99972       -1.74552        1.73857
C         -6.37380       -2.30024        2.13282
N         -7.43494       -1.29395        2.30817
C         -8.72060       -1.94470        2.66493
C         -9.42041       -2.64378        1.48239
O         -9.60902       -1.75388        0.37477
C         -8.36233       -1.18376       -0.04057
C         -7.68133       -0.44537        1.12135
H          0.59455        0.39105       -0.85109
H          1.00050       -1.05766        0.08814
H          2.08972        0.32255        0.09456
H          0.71831        0.16765        2.20818
H          0.17899        2.64333        0.48403
H          0.08645        2.56725        2.25290
H          1.63965        2.33702        1.44000
H         -1.70408        0.91733        2.04514
H         -1.60203        0.75579        0.29527
H         -2.60745       -1.26268        0.97911
H         -0.96368       -1.74066        0.69533
H         -0.53401       -1.97040        2.93352
H         -4.00034       -1.56448        4.61647
H         -5.20069       -0.20915        3.28110
H         -3.83746        0.02325        2.21219
H         -5.06980       -1.27327        0.75228
H         -4.31915       -2.59722        1.61291
H         -6.65602       -3.04678        1.38149
H         -6.25189       -2.84377        3.07878
H         -9.38789       -1.16059        3.04559
H         -8.57932       -2.65153        3.49100
H         -8.86195       -3.52282        1.14198
H        -10.41083       -2.98937        1.79536
H         -8.57783       -0.47662       -0.84815
H         -7.72153       -1.97020       -0.45517
H         -8.34137        0.37210        1.44153
H         -6.76480        0.04466        0.77933

--Link1--
%chk=JID_8126.chk
%mem=8GB
%nprocshared=4
# B3LYP/6-311++G(d,p) empiricaldispersion=gd3bj scf=xqc pop=npa geom=check

CID_127576123_JID_8126_Energie_neutraal

0 1

--Link1--
%chk=JID_8126.chk
%mem=8GB
%nprocshared=4
# B3LYP/6-311++G(d,p) empiricaldispersion=gd3bj scf=xqc pop=npa geom=check

CID_127576123_JID_8126_Energie_kation

1 2

--Link1--
%chk=JID_8126.chk
%mem=8GB
%nprocshared=4
# B3LYP/6-311++G(d,p) empiricaldispersion=gd3bj scf=xqc pop=npa geom=check

CID_127576123_JID_8126_Energie_anion

-1 2
