%chk=JID_5944.chk
%mem=8GB
%nprocshared=4
# opt freq B3LYP/6-31G(d) empiricaldispersion=gd3bj scf=xqc

CID_66353859_JID_5944_neutraal

0 1
C          1.01433        0.09547       -0.02607
C          0.66114       -1.37691        0.18056
C          0.97662       -1.85108        1.62767
N         -0.07544       -1.43119        2.58367
C         -0.87837       -2.52218        3.14296
C          0.23533       -0.42365        3.46816
C          1.19627       -0.32339        4.46138
C          2.10009       -1.35456        4.76385
C          2.98997       -1.02948        5.80613
C          2.97741        0.21541        6.49199
C          2.06598        1.24925        6.19923
C          1.14800        0.97222        5.16062
N          0.18455        1.78420        4.71662
S         -0.67009        1.04602        3.51443
N         -0.75031       -1.57916       -0.19063
H          0.38598        0.75882        0.57523
H          0.88523        0.38088       -1.07636
H          2.05953        0.28511        0.24049
H          1.28182       -1.96367       -0.50717
H          1.04334       -2.94723        1.62175
H          1.96948       -1.48725        1.91896
H         -0.28236       -3.14930        3.81494
H         -1.73941       -2.13325        3.69837
H         -1.27110       -3.15694        2.34159
H          2.12964       -2.31407        4.26555
H          3.72961       -1.77287        6.10618
H          3.70613        0.37712        7.28653
H          2.05944        2.19153        6.73160
H         -0.98596       -2.56212       -0.06811
H         -1.30288       -1.09539        0.52514

--Link1--
%chk=JID_5944.chk
%mem=8GB
%nprocshared=4
# B3LYP/6-311++G(d,p) empiricaldispersion=gd3bj scf=xqc pop=npa geom=check

CID_66353859_JID_5944_Energie_neutraal

0 1

--Link1--
%chk=JID_5944.chk
%mem=8GB
%nprocshared=4
# B3LYP/6-311++G(d,p) empiricaldispersion=gd3bj scf=xqc pop=npa geom=check

CID_66353859_JID_5944_Energie_kation

1 2

--Link1--
%chk=JID_5944.chk
%mem=8GB
%nprocshared=4
# B3LYP/6-311++G(d,p) empiricaldispersion=gd3bj scf=xqc pop=npa geom=check

CID_66353859_JID_5944_Energie_anion

-1 2
