%chk=JID_319.chk
%mem=8GB
%nprocshared=4
# opt freq B3LYP/6-31G(d) empiricaldispersion=gd3bj scf=xqc

CID_118545059_JID_319_neutraal

0 1
C          0.98711       -0.08181       -0.05605
C          0.48426       -0.68972        1.22729
N         -0.28804       -0.13701        2.09030
C         -0.84296        1.21594        2.08874
C          0.23782        2.24436        2.43394
C         -1.57341        1.55772        0.78800
C         -1.88419        1.22028        3.22755
C          0.85761       -2.14089        1.48831
C         -0.07778       -3.06433        0.72748
O          0.30838       -3.11622       -0.64269
H          1.24787        0.96773        0.06492
H          0.22098       -0.18729       -0.82866
H          1.88730       -0.60544       -0.39074
H          1.00269        2.32366        1.65817
H         -0.19608        3.24239        2.56349
H          0.75148        1.97821        3.36509
H         -2.23633        0.74164        0.47921
H         -2.18482        2.45998        0.90655
H         -0.88630        1.75983       -0.03713
H         -2.67627        0.48572        3.03955
H         -1.42240        0.95921        4.18723
H         -2.35497        2.20361        3.33793
H          1.90137       -2.29858        1.19747
H          0.76928       -2.33121        2.56416
H         -0.00793       -4.07956        1.13043
H         -1.11874       -2.72997        0.78486
H         -0.30773       -3.72564       -1.08596

--Link1--
%chk=JID_319.chk
%mem=8GB
%nprocshared=4
# B3LYP/6-311++G(d,p) empiricaldispersion=gd3bj scf=xqc pop=npa geom=check

CID_118545059_JID_319_Energie_neutraal

0 1

--Link1--
%chk=JID_319.chk
%mem=8GB
%nprocshared=4
# B3LYP/6-311++G(d,p) empiricaldispersion=gd3bj scf=xqc pop=npa geom=check

CID_118545059_JID_319_Energie_kation

1 2

--Link1--
%chk=JID_319.chk
%mem=8GB
%nprocshared=4
# B3LYP/6-311++G(d,p) empiricaldispersion=gd3bj scf=xqc pop=npa geom=check

CID_118545059_JID_319_Energie_anion

-1 2
