%chk=JID_8571.chk
%mem=8GB
%nprocshared=4
# opt freq B3LYP/6-31G(d) empiricaldispersion=gd3bj scf=xqc

CID_79065808_JID_8571_neutraal

0 1
C          0.93219       -0.04980        0.05405
C          1.25784       -0.46804        1.48628
C          1.86981        0.64279        2.39707
C          0.85064        1.82554        2.43061
C          1.93811        0.14073        3.91139
C          2.47421       -1.28436        4.15701
C          2.88489       -1.57473        5.61551
C          3.04510       -3.08464        5.86604
C          4.54208       -3.34008        5.80833
C          5.11575       -2.11537        6.49419
C          4.26352       -0.96973        5.96354
O          2.71410        1.09399        4.65426
N          3.27060        1.09028        2.04441
C          4.11179        0.10474        1.34534
C          5.58698        0.50648        1.38388
C          5.79235        1.87481        0.75370
C          4.86279        2.88972        1.40003
C          3.40549        2.41320        1.41326
H          0.10172        0.66185        0.02626
H          0.62262       -0.92686       -0.52428
H          1.78534        0.40090       -0.45636
H          0.32617       -0.82774        1.94433
H          1.91150       -1.34601        1.44604
H         -0.15080        1.46588        2.69814
H          1.12099        2.58137        3.17691
H          0.75747        2.32617        1.46135
H          0.93065        0.17524        4.34621
H          1.69068       -1.98965        3.85236
H          3.33703       -1.49955        3.52783
H          2.11218       -1.18324        6.28834
H          2.67621       -3.32401        6.87156
H          2.49368       -3.71031        5.15795
H          4.88128       -3.39176        4.76706
H          4.82582       -4.26915        6.31044
H          6.17866       -1.97523        6.27620
H          4.99943       -2.19801        7.58107
H          4.74958       -0.54124        5.07874
H          4.17657       -0.16989        6.70626
H          3.41048        1.36648        4.01914
H          3.80389       -0.00637        0.29996
H          4.04850       -0.88496        1.79658
H          6.18775       -0.23928        0.85104
H          5.93947        0.51804        2.42335
H          6.83497        2.19053        0.86840
H          5.58665        1.81979       -0.32209
H          5.19096        3.07493        2.43127
H          4.93306        3.84566        0.86873
H          2.85933        3.17910        1.97182
H          3.00809        2.39654        0.39134

--Link1--
%chk=JID_8571.chk
%mem=8GB
%nprocshared=4
# B3LYP/6-311++G(d,p) empiricaldispersion=gd3bj scf=xqc pop=npa geom=check

CID_79065808_JID_8571_Energie_neutraal

0 1

--Link1--
%chk=JID_8571.chk
%mem=8GB
%nprocshared=4
# B3LYP/6-311++G(d,p) empiricaldispersion=gd3bj scf=xqc pop=npa geom=check

CID_79065808_JID_8571_Energie_kation

1 2

--Link1--
%chk=JID_8571.chk
%mem=8GB
%nprocshared=4
# B3LYP/6-311++G(d,p) empiricaldispersion=gd3bj scf=xqc pop=npa geom=check

CID_79065808_JID_8571_Energie_anion

-1 2
