%chk=JID_3174.chk
%mem=8GB
%nprocshared=4
# opt freq B3LYP/6-31G(d) empiricaldispersion=gd3bj scf=xqc

CID_64020802_JID_3174_neutraal

0 1
C          1.01035        0.04410        0.08915
C          1.00669        1.43288        0.70457
C          2.25286        2.18104        0.26482
O          2.32083        2.68391       -0.85512
N          3.33373        2.12743        1.16236
C          3.10031        2.84734        2.42021
C          4.15132        2.56235        3.49659
C          5.53738        2.87545        2.92239
C          5.79087        2.10528        1.63397
C          4.68215        2.31743        0.58284
C          4.96933        1.34391       -0.57391
C          3.98534        1.12786        4.03333
N          4.88719        0.84727        5.14701
H          1.04146        0.09736       -1.00422
H          0.10910       -0.50443        0.37939
H          1.88313       -0.52930        0.41925
H          0.13020        2.00218        0.37741
H          0.94246        1.33295        1.78936
H          3.10180        3.91885        2.17592
H          2.10169        2.63920        2.81365
H          3.96976        3.25272        4.33178
H          6.32769        2.65971        3.64900
H          5.60254        3.95071        2.71063
H          5.88380        1.03747        1.86922
H          6.75722        2.41308        1.21571
H          4.73354        3.34620        0.20279
H          4.33182        1.52636       -1.44270
H          6.00526        1.44226       -0.91661
H          4.80933        0.30580       -0.26128
H          2.95776        0.99671        4.39231
H          4.14137        0.38243        3.24646
H          4.69946       -0.09026        5.50235
H          5.85084        0.82737        4.81563

--Link1--
%chk=JID_3174.chk
%mem=8GB
%nprocshared=4
# B3LYP/6-311++G(d,p) empiricaldispersion=gd3bj scf=xqc pop=npa geom=check

CID_64020802_JID_3174_Energie_neutraal

0 1

--Link1--
%chk=JID_3174.chk
%mem=8GB
%nprocshared=4
# B3LYP/6-311++G(d,p) empiricaldispersion=gd3bj scf=xqc pop=npa geom=check

CID_64020802_JID_3174_Energie_kation

1 2

--Link1--
%chk=JID_3174.chk
%mem=8GB
%nprocshared=4
# B3LYP/6-311++G(d,p) empiricaldispersion=gd3bj scf=xqc pop=npa geom=check

CID_64020802_JID_3174_Energie_anion

-1 2
