%chk=JID_10974.chk
%mem=8GB
%nprocshared=4
# opt freq B3LYP/6-31G(d) empiricaldispersion=gd3bj scf=xqc

CID_114362173_JID_10974_neutraal

0 1
C          1.00669       -0.06970        0.07139
C          0.96470       -0.34353       -1.43197
C          1.48013       -1.75844       -1.71141
C         -0.44659       -0.18434       -2.02551
C         -1.05212        1.17931       -1.87252
C         -0.72651        2.33881       -2.56150
S         -1.75880        3.61783       -2.05604
C         -2.58591        2.53849       -1.00932
N         -2.10933        1.31015       -0.98172
C         -3.79903        2.99016       -0.24706
C         -3.48314        3.83880        0.96809
C         -2.94611        3.21655        2.10983
C         -2.65275        3.95771        3.25212
C         -2.88809        5.32841        3.26527
C         -3.41334        5.96194        2.13598
C         -3.71235        5.22783        0.98273
O         -4.23167        5.76402       -0.16613
C         -4.45046        7.16834       -0.19681
C          0.31464        2.58189       -3.60242
N         -0.25898        2.50149       -4.94109
H          0.31647       -0.72467        0.61397
H          0.73570        0.96741        0.29367
H          2.01358       -0.23664        0.46902
H          1.64817        0.36203       -1.91750
H          0.84835       -2.51338       -1.23033
H          1.49325       -1.96326       -2.78711
H          2.50106       -1.88311       -1.33546
H         -0.42047       -0.42698       -3.09603
H         -1.11935       -0.92165       -1.56701
H         -4.49306        3.50094       -0.92529
H         -4.35149        2.10363        0.09369
H         -2.75426        2.14457        2.10606
H         -2.24098        3.46513        4.12891
H         -2.66127        5.90901        4.15580
H         -3.57891        7.03257        2.19140
H         -4.84645        7.42296       -1.18469
H         -5.19671        7.46712        0.54670
H         -3.51334        7.71853       -0.06273
H          0.77454        3.56689       -3.46349
H          1.12037        1.84683       -3.51957
H          0.48548        2.58013       -5.63000
H         -0.68407        1.58546       -5.07076

--Link1--
%chk=JID_10974.chk
%mem=8GB
%nprocshared=4
# B3LYP/6-311++G(d,p) empiricaldispersion=gd3bj scf=xqc pop=npa geom=check

CID_114362173_JID_10974_Energie_neutraal

0 1

--Link1--
%chk=JID_10974.chk
%mem=8GB
%nprocshared=4
# B3LYP/6-311++G(d,p) empiricaldispersion=gd3bj scf=xqc pop=npa geom=check

CID_114362173_JID_10974_Energie_kation

1 2

--Link1--
%chk=JID_10974.chk
%mem=8GB
%nprocshared=4
# B3LYP/6-311++G(d,p) empiricaldispersion=gd3bj scf=xqc pop=npa geom=check

CID_114362173_JID_10974_Energie_anion

-1 2
