%chk=JID_2661.chk
%mem=8GB
%nprocshared=4
# opt freq B3LYP/6-31G(d) empiricaldispersion=gd3bj scf=xqc

CID_64497626_JID_2661_neutraal

0 1
C          0.93125        0.04861        0.05396
C          0.06774       -0.97250        0.84378
C         -0.12861       -0.38473        2.25021
C         -1.30822       -1.01984        0.14840
C          0.79268       -2.37816        0.80166
C          2.06129       -2.49111        1.67525
C          1.82651       -3.04958        3.07614
C          1.09210       -4.38448        3.03427
C         -0.25018       -4.30556        2.29616
C         -0.06797       -3.66330        0.91074
N         -1.27665       -3.59034        3.06133
C         -1.99115       -4.46658        3.98202
H          0.45094        1.03385        0.02183
H          1.07877       -0.27387       -0.98305
H          1.91813        0.18558        0.50679
H         -0.57825        0.61465        2.19337
H         -0.80249       -0.98631        2.85809
H          0.81876       -0.26822        2.78433
H         -1.23104       -1.45414       -0.85452
H         -2.03230       -1.60465        0.72509
H         -1.73194       -0.01449        0.03797
H          1.16886       -2.42888       -0.23355
H          2.75964       -3.16831        1.16358
H          2.58639       -1.53364        1.74729
H          1.27611       -2.33308        3.69237
H          2.79609       -3.19191        3.56847
H          0.95385       -4.75864        4.05538
H          1.72905       -5.12111        2.52680
H         -0.60034       -5.33119        2.11584
H         -1.03792       -3.54994        0.41617
H          0.44770       -4.42164        0.30038
H         -0.84626       -2.84453        3.60282
H         -1.32103       -4.91992        4.71867
H         -2.74118       -3.88409        4.52622
H         -2.52189       -5.25830        3.44345

--Link1--
%chk=JID_2661.chk
%mem=8GB
%nprocshared=4
# B3LYP/6-311++G(d,p) empiricaldispersion=gd3bj scf=xqc pop=npa geom=check

CID_64497626_JID_2661_Energie_neutraal

0 1

--Link1--
%chk=JID_2661.chk
%mem=8GB
%nprocshared=4
# B3LYP/6-311++G(d,p) empiricaldispersion=gd3bj scf=xqc pop=npa geom=check

CID_64497626_JID_2661_Energie_kation

1 2

--Link1--
%chk=JID_2661.chk
%mem=8GB
%nprocshared=4
# B3LYP/6-311++G(d,p) empiricaldispersion=gd3bj scf=xqc pop=npa geom=check

CID_64497626_JID_2661_Energie_anion

-1 2
