%chk=JID_6183.chk
%mem=8GB
%nprocshared=4
# opt freq B3LYP/6-31G(d) empiricaldispersion=gd3bj scf=xqc

CID_61582445_JID_6183_neutraal

0 1
C          0.92031        0.04130        0.04408
C          0.62544       -0.02798        1.49476
N          1.40538       -0.75363        2.30603
N          0.83630       -0.59929        3.52020
C         -0.27577        0.21790        3.52454
C         -0.42125        0.60883        2.20844
N         -1.37202        1.42222        1.70086
N         -0.99056        0.42668        4.68161
C         -2.06796       -0.56018        4.87913
C         -1.43114        1.80157        5.01898
C         -0.26902        2.80238        5.19186
C          0.03411        3.63834        3.93429
O         -1.12544        4.13570        3.25134
C         -1.78020        5.19320        3.94109
O         -0.57837        3.69218        6.28630
C          1.42388       -1.26339        4.65898
H          0.01935       -0.16643       -0.54207
H          1.68447       -0.68681       -0.24732
H          1.28284        1.03939       -0.22173
H         -1.80351        2.10870        2.31580
H         -1.24374        1.81697        0.77462
H         -2.45521       -0.49930        5.90202
H         -2.89542       -0.38250        4.18263
H         -1.70214       -1.58328        4.73523
H         -2.19485        2.15602        4.32012
H         -1.95040        1.74474        5.98597
H          0.64137        2.27213        5.49629
H          0.68817        4.48356        4.18128
H          0.57992        3.02597        3.21204
H         -2.31016        4.81364        4.81795
H         -1.07138        5.97558        4.22817
H         -2.52102        5.62922        3.26502
H          0.24165        4.16818        6.50452
H          0.86019       -2.18008        4.84720
H          2.46768       -1.50254        4.43815
H          1.38279       -0.59890        5.52544

--Link1--
%chk=JID_6183.chk
%mem=8GB
%nprocshared=4
# B3LYP/6-311++G(d,p) empiricaldispersion=gd3bj scf=xqc pop=npa geom=check

CID_61582445_JID_6183_Energie_neutraal

0 1

--Link1--
%chk=JID_6183.chk
%mem=8GB
%nprocshared=4
# B3LYP/6-311++G(d,p) empiricaldispersion=gd3bj scf=xqc pop=npa geom=check

CID_61582445_JID_6183_Energie_kation

1 2

--Link1--
%chk=JID_6183.chk
%mem=8GB
%nprocshared=4
# B3LYP/6-311++G(d,p) empiricaldispersion=gd3bj scf=xqc pop=npa geom=check

CID_61582445_JID_6183_Energie_anion

-1 2
