%chk=JID_2209.chk
%mem=8GB
%nprocshared=4
# opt freq B3LYP/6-31G(d) empiricaldispersion=gd3bj scf=xqc

CID_140527084_JID_2209_neutraal

0 1
C          1.09123        0.04072       -0.00438
C          0.06196       -1.02495       -0.16406
C          0.16987       -2.24469        0.38154
C         -0.85546       -3.28329        0.10376
O         -1.96492       -3.03849       -0.35198
C         -0.45467       -4.66587        0.48758
C          0.41524       -5.40042       -0.25107
C          0.82217       -6.79679        0.18312
C          1.05756       -5.01699       -1.59547
C          0.18595       -4.23262       -2.58196
C          2.41550       -4.33472       -1.40500
C         -1.11042       -5.10891        1.76601
H          1.89520       -0.25723        0.67616
H          0.62865        0.94862        0.39465
H          1.53535        0.27951       -0.97552
H         -0.79830       -0.78455       -0.78744
H          1.02194       -2.52935        0.98714
H          0.57979       -7.52188       -0.60157
H          1.90072       -6.83327        0.36797
H          0.32237       -7.14269        1.09056
H          1.26185       -5.96278       -2.11823
H          0.12911       -3.16829       -2.34230
H          0.61212       -4.29859       -3.58997
H         -0.82909       -4.64054       -2.62906
H          3.07167       -4.92474       -0.75650
H          2.92338       -4.21659       -2.36861
H          2.31789       -3.33919       -0.96466
H         -1.53986       -4.26258        2.31418
H         -1.92129       -5.81274        1.55307
H         -0.39248       -5.57955        2.44483

--Link1--
%chk=JID_2209.chk
%mem=8GB
%nprocshared=4
# B3LYP/6-311++G(d,p) empiricaldispersion=gd3bj scf=xqc pop=npa geom=check

CID_140527084_JID_2209_Energie_neutraal

0 1

--Link1--
%chk=JID_2209.chk
%mem=8GB
%nprocshared=4
# B3LYP/6-311++G(d,p) empiricaldispersion=gd3bj scf=xqc pop=npa geom=check

CID_140527084_JID_2209_Energie_kation

1 2

--Link1--
%chk=JID_2209.chk
%mem=8GB
%nprocshared=4
# B3LYP/6-311++G(d,p) empiricaldispersion=gd3bj scf=xqc pop=npa geom=check

CID_140527084_JID_2209_Energie_anion

-1 2
