%chk=JID_5423.chk
%mem=8GB
%nprocshared=4
# opt freq B3LYP/6-31G(d) empiricaldispersion=gd3bj scf=xqc

CID_140971900_JID_5423_neutraal

0 1
C          1.03387       -0.05364        0.07730
C          0.25650        0.74795       -0.96409
C          0.42862        0.14267       -2.35793
N         -1.15569        0.88644       -0.61227
C         -2.00102       -0.22644       -0.25416
C         -3.36775        0.40768       -0.06218
N         -3.28860        1.66215       -0.77848
C         -1.93887        1.96072       -1.07745
O         -1.48212        2.94571       -1.63641
C         -4.41751        2.49139       -1.01738
C         -4.31730        3.69099       -1.72295
C         -5.45702        4.45668       -1.92326
N         -6.68201        4.11632       -1.47610
C         -6.76608        2.95755       -0.79680
C         -5.68346        2.12563       -0.54713
H          0.70193       -1.09668        0.11556
H          0.90185        0.37648        1.07594
H          2.10450       -0.05204       -0.15303
H          0.67808        1.76058       -0.99170
H          0.03827       -0.87975       -2.40150
H         -0.10443        0.73244       -3.11125
H          1.48629        0.11237       -2.63999
H         -1.64393       -0.72494        0.65056
H         -2.01669       -0.93668       -1.08750
H         -3.55232        0.62382        0.99626
H         -4.15765       -0.23880       -0.45664
H         -3.38277        4.05527       -2.13090
H         -5.40543        5.39464       -2.46916
H         -7.76026        2.70181       -0.44145
H         -5.85672        1.21793        0.01651

--Link1--
%chk=JID_5423.chk
%mem=8GB
%nprocshared=4
# B3LYP/6-311++G(d,p) empiricaldispersion=gd3bj scf=xqc pop=npa geom=check

CID_140971900_JID_5423_Energie_neutraal

0 1

--Link1--
%chk=JID_5423.chk
%mem=8GB
%nprocshared=4
# B3LYP/6-311++G(d,p) empiricaldispersion=gd3bj scf=xqc pop=npa geom=check

CID_140971900_JID_5423_Energie_kation

1 2

--Link1--
%chk=JID_5423.chk
%mem=8GB
%nprocshared=4
# B3LYP/6-311++G(d,p) empiricaldispersion=gd3bj scf=xqc pop=npa geom=check

CID_140971900_JID_5423_Energie_anion

-1 2
