%chk=JID_6579.chk
%mem=8GB
%nprocshared=4
# opt freq B3LYP/6-31G(d) empiricaldispersion=gd3bj scf=xqc

CID_131263702_JID_6579_neutraal

0 1
C         -1.26100       -1.11300       -0.13700
C         -1.73133        0.33190       -0.28948
C         -0.69090        1.36202       -0.75564
C          0.40290        1.57485        0.29811
C          1.53818        0.54462        0.32758
N          1.16455       -0.83846        0.03884
C         -0.02153       -1.32422        0.73332
C          2.30546       -1.76468        0.05817
C          2.92891       -1.92395        1.39870
C          2.54470       -2.72951        2.44584
O          3.40936       -2.59310        3.48073
N          4.40371       -1.69525        3.13085
C          4.10747       -1.31297        1.88706
C         -0.11907        1.12304       -2.13979
O          0.93829        1.56064       -2.56754
O         -0.94797        0.45954       -2.96713
H         -2.08742       -1.68857        0.30001
H         -1.09024       -1.55145       -1.12863
H         -2.58234        0.33827       -0.98298
H         -2.14023        0.66261        0.67478
H         -1.23407        2.31445       -0.84090
H          0.85905        2.56099        0.13644
H         -0.06156        1.62693        1.29167
H          2.29794        0.85707       -0.40002
H          2.01243        0.62653        1.31324
H         -0.14111       -0.87108        1.72486
H          0.04561       -2.40694        0.89972
H          1.98846       -2.74540       -0.31995
H          3.06053       -1.41736       -0.65916
H          1.73126       -3.42028        2.60957
H          4.75855       -0.60671        1.39076
H         -0.45278        0.42592       -3.81182

--Link1--
%chk=JID_6579.chk
%mem=8GB
%nprocshared=4
# B3LYP/6-311++G(d,p) empiricaldispersion=gd3bj scf=xqc pop=npa geom=check

CID_131263702_JID_6579_Energie_neutraal

0 1

--Link1--
%chk=JID_6579.chk
%mem=8GB
%nprocshared=4
# B3LYP/6-311++G(d,p) empiricaldispersion=gd3bj scf=xqc pop=npa geom=check

CID_131263702_JID_6579_Energie_kation

1 2

--Link1--
%chk=JID_6579.chk
%mem=8GB
%nprocshared=4
# B3LYP/6-311++G(d,p) empiricaldispersion=gd3bj scf=xqc pop=npa geom=check

CID_131263702_JID_6579_Energie_anion

-1 2
