%chk=JID_10135.chk
%mem=8GB
%nprocshared=4
# opt freq B3LYP/6-31G(d) empiricaldispersion=gd3bj scf=xqc

CID_61534542_JID_10135_neutraal

0 1
C          0.91738        0.05607       -0.00556
O          0.33122       -0.97345       -0.78710
C          0.65353       -0.90362       -2.17708
C          0.00375        0.27684       -2.92013
N          0.75224        1.54012       -2.82246
C          2.01522        1.63904       -3.57538
C          1.87618        2.04467       -5.04022
O          2.80871        2.17934       -5.81908
O          0.61276        2.24204       -5.46152
C          0.06745        2.67748       -2.36884
O         -1.10372        2.64608       -2.00127
C          0.80452        3.93415       -2.34044
C          1.85288        4.24162       -1.49018
N          2.25850        5.52166       -1.75858
C          1.48918        6.06474       -2.76153
C          1.54336        7.33141       -3.35511
C          0.60931        7.61879       -4.35512
C         -0.34247        6.67798       -4.74117
C         -0.38259        5.41642       -4.13755
C          0.55219        5.09878       -3.13070
H          0.37206        0.99268       -0.13516
H          1.97568        0.18852       -0.24995
H          0.83896       -0.23092        1.04687
H          1.74025       -0.94144       -2.30151
H          0.25641       -1.82753       -2.61249
H         -0.06869        0.03621       -3.98688
H         -1.01698        0.40552       -2.54633
H          2.68259        2.35865       -3.09836
H          2.51086        0.66462       -3.55258
H          0.70734        2.53824       -6.39078
H          2.33172        3.66062       -0.71339
H          3.00379        6.01138       -1.28237
H          2.27703        8.07123       -3.05205
H          0.62237        8.59553       -4.83372
H         -1.06561        6.92541       -5.51437
H         -1.13242        4.68895       -4.43771

--Link1--
%chk=JID_10135.chk
%mem=8GB
%nprocshared=4
# B3LYP/6-311++G(d,p) empiricaldispersion=gd3bj scf=xqc pop=npa geom=check

CID_61534542_JID_10135_Energie_neutraal

0 1

--Link1--
%chk=JID_10135.chk
%mem=8GB
%nprocshared=4
# B3LYP/6-311++G(d,p) empiricaldispersion=gd3bj scf=xqc pop=npa geom=check

CID_61534542_JID_10135_Energie_kation

1 2

--Link1--
%chk=JID_10135.chk
%mem=8GB
%nprocshared=4
# B3LYP/6-311++G(d,p) empiricaldispersion=gd3bj scf=xqc pop=npa geom=check

CID_61534542_JID_10135_Energie_anion

-1 2
