%chk=JID_10823.chk
%mem=8GB
%nprocshared=4
# opt freq B3LYP/6-31G(d) empiricaldispersion=gd3bj scf=xqc

CID_133362267_JID_10823_neutraal

0 1
C          1.00609       -0.07432        0.06663
S         -0.21901       -0.74203       -1.03104
O         -1.10607       -1.59912       -0.26321
O         -0.76111        0.35378       -1.81319
C          0.73874       -1.76504       -2.13970
C          0.83879       -3.16637       -1.97564
C          1.65845       -3.83825       -2.90000
C          2.30081       -3.17934       -3.95687
C          2.14436       -1.80746       -4.10642
C          1.35863       -1.09242       -3.20858
S          2.95757       -0.95347       -5.42065
O          3.90888       -1.83802       -6.05075
O          1.97484       -0.20019       -6.16044
N          3.88665        0.17324       -4.58563
N          0.27354       -3.81791       -0.88042
C         -0.02685       -5.25627       -0.77335
C         -0.80011       -5.85609       -1.96206
C         -0.10739       -7.16031       -2.20472
C          0.97063       -7.31892       -1.42995
C          1.19913       -6.15110       -0.52169
H          0.49794        0.56469        0.79203
H          1.72066        0.51546       -0.51043
H          1.50667       -0.89599        0.58233
H          1.82094       -4.90898       -2.82869
H          2.91736       -3.75183       -4.64730
H          1.23359       -0.01857       -3.33737
H          4.87624       -0.01464       -4.75457
H          3.60168        1.11544       -4.85813
H         -0.50939       -3.27489       -0.48598
H         -0.67110       -5.35444        0.11261
H         -1.84793       -6.02684       -1.69199
H         -0.78415       -5.23835       -2.86380
H         -0.44626       -7.88007       -2.93827
H          1.61813       -8.18547       -1.45353
H          2.15422       -5.66419       -0.73588
H          1.22300       -6.48521        0.52148

--Link1--
%chk=JID_10823.chk
%mem=8GB
%nprocshared=4
# B3LYP/6-311++G(d,p) empiricaldispersion=gd3bj scf=xqc pop=npa geom=check

CID_133362267_JID_10823_Energie_neutraal

0 1

--Link1--
%chk=JID_10823.chk
%mem=8GB
%nprocshared=4
# B3LYP/6-311++G(d,p) empiricaldispersion=gd3bj scf=xqc pop=npa geom=check

CID_133362267_JID_10823_Energie_kation

1 2

--Link1--
%chk=JID_10823.chk
%mem=8GB
%nprocshared=4
# B3LYP/6-311++G(d,p) empiricaldispersion=gd3bj scf=xqc pop=npa geom=check

CID_133362267_JID_10823_Energie_anion

-1 2
