%chk=JID_3956.chk
%mem=8GB
%nprocshared=4
# opt freq B3LYP/6-31G(d) empiricaldispersion=gd3bj scf=xqc

CID_131176247_JID_3956_neutraal

0 1
C          1.06943       -0.07101       -0.01172
C          0.76731        0.29614       -1.45610
C          0.47891       -0.91387       -2.35097
C         -0.72928       -1.75366       -1.92747
N         -1.92160       -0.92127       -1.97167
C         -3.01795       -1.29707       -1.39429
C         -4.09368       -0.23442       -1.42764
C         -5.28183       -0.47448       -0.83849
C         -5.54576       -1.75359       -0.19121
C         -4.59467       -2.69857       -0.18581
N         -3.35213       -2.49817       -0.74720
O         -2.56854       -3.61492       -1.01700
C         -6.38697        0.53754       -0.81657
H          0.19028       -0.48788        0.48837
H          1.37429        0.82037        0.54603
H          1.88224       -0.80165        0.04689
H         -0.07443        0.99748       -1.48368
H          1.63159        0.83071       -1.86845
H          0.32272       -0.55313       -3.37552
H          1.36472       -1.56026       -2.37711
H         -0.82758       -2.58315       -2.63655
H         -0.55341       -2.16563       -0.92846
H         -3.84678        0.69769       -1.92049
H         -6.51531       -1.93389        0.26101
H         -4.73983       -3.67746        0.25653
H         -2.69974       -3.72924       -1.97609
H         -7.27852        0.14520       -1.31742
H         -6.65240        0.79509        0.21440
H         -6.10128        1.46408       -1.32632

--Link1--
%chk=JID_3956.chk
%mem=8GB
%nprocshared=4
# B3LYP/6-311++G(d,p) empiricaldispersion=gd3bj scf=xqc pop=npa geom=check

CID_131176247_JID_3956_Energie_neutraal

0 1

--Link1--
%chk=JID_3956.chk
%mem=8GB
%nprocshared=4
# B3LYP/6-311++G(d,p) empiricaldispersion=gd3bj scf=xqc pop=npa geom=check

CID_131176247_JID_3956_Energie_kation

1 2

--Link1--
%chk=JID_3956.chk
%mem=8GB
%nprocshared=4
# B3LYP/6-311++G(d,p) empiricaldispersion=gd3bj scf=xqc pop=npa geom=check

CID_131176247_JID_3956_Energie_anion

-1 2
