%chk=JID_9926.chk
%mem=8GB
%nprocshared=4
# opt freq B3LYP/6-31G(d) empiricaldispersion=gd3bj scf=xqc

CID_60875144_JID_9926_neutraal

0 1
C          0.92751       -0.06774        0.01248
N         -0.01605        1.04367        0.14840
C         -0.59392        1.46397       -1.14089
C         -1.94621        2.11562       -0.95406
C         -3.05120        1.34612       -0.54992
C         -4.31192        1.92325       -0.37689
C         -4.43709        3.30739       -0.51128
C         -3.35003        4.08762       -0.91100
C         -2.11055        3.49346       -1.14094
N         -5.36609        1.16778        0.15223
C          0.62248        2.14429        0.76643
C          0.00716        2.86810        1.80935
C         -1.25493        2.73669        2.48354
C         -1.44452        3.69641        3.45310
S         -0.10483        4.75219        3.57099
C          0.72626        3.93289        2.32674
N          1.94796        4.33775        1.94179
C          2.44138        3.57771        0.96170
N          1.86012        2.52592        0.36233
H          0.39140       -0.96121       -0.32719
H          1.38374       -0.32015        0.97722
H          1.72048        0.14189       -0.71563
H          0.08526        2.11696       -1.70689
H         -0.75068        0.58445       -1.78097
H         -2.91144        0.28523       -0.35493
H         -5.38576        3.79359       -0.30083
H         -3.46628        5.16241       -1.02183
H         -1.26681        4.11500       -1.43234
H         -6.28285        1.55393       -0.05003
H         -5.30846        0.17926       -0.07149
H         -1.98750        1.97371        2.24828
H         -2.30470        3.82773        4.09504
H          3.43176        3.84200        0.60397

--Link1--
%chk=JID_9926.chk
%mem=8GB
%nprocshared=4
# B3LYP/6-311++G(d,p) empiricaldispersion=gd3bj scf=xqc pop=npa geom=check

CID_60875144_JID_9926_Energie_neutraal

0 1

--Link1--
%chk=JID_9926.chk
%mem=8GB
%nprocshared=4
# B3LYP/6-311++G(d,p) empiricaldispersion=gd3bj scf=xqc pop=npa geom=check

CID_60875144_JID_9926_Energie_kation

1 2

--Link1--
%chk=JID_9926.chk
%mem=8GB
%nprocshared=4
# B3LYP/6-311++G(d,p) empiricaldispersion=gd3bj scf=xqc pop=npa geom=check

CID_60875144_JID_9926_Energie_anion

-1 2
