%chk=JID_10251.chk
%mem=8GB
%nprocshared=4
# opt freq B3LYP/6-31G(d) empiricaldispersion=gd3bj scf=xqc

CID_137811696_JID_10251_neutraal

0 1
C         -1.23900       -0.77500       -0.51200
C         -1.00997        0.63284       -1.07739
C         -0.12412        1.29945       -0.00793
C         -0.71335        0.70632        1.27446
C         -0.48052       -0.73652        0.82387
C          1.03207       -0.74942        0.53202
C          1.29481        0.68093        0.01262
N          1.98240        0.70182       -1.26960
C          2.35578        1.78762       -1.99196
S          2.38719        1.67599       -3.65742
N          2.68679        2.96846       -1.39437
N          3.46871        3.00709       -0.21194
C          2.82432        3.80972        0.83803
C          2.89055        5.32532        0.54865
N          2.26505        6.13721        1.61253
C          2.66879        7.55933        1.51073
C          2.00628        8.31821        0.34863
O          0.57774        8.24190        0.42588
C          0.14244        6.87733        0.42983
C          0.78418        6.08480        1.58336
H         -2.30909       -0.94613       -0.34937
H         -0.86721       -1.55430       -1.18476
H         -0.55606        0.60921       -2.07124
H         -1.96769        1.15966       -1.16292
H         -0.13048        2.38986       -0.06467
H         -0.15090        0.97454        2.17505
H         -1.77172        0.94897        1.41720
H         -0.79599       -1.50867        1.52819
H          1.31224       -1.53487       -0.17772
H          1.59451       -0.91573        1.45842
H          1.90614        1.19153        0.75817
H          1.75556       -0.07397       -1.88302
H          2.94870        3.66981       -2.08890
H          3.61873        2.04880        0.11279
H          1.79136        3.48025        0.97962
H          3.34966        3.61243        1.78036
H          3.95482        5.58827        0.48045
H          2.45368        5.54600       -0.43166
H          2.38000        8.04699        2.45106
H          3.75970        7.64729        1.44760
H          2.33642        7.93818       -0.62482
H          2.28077        9.37686        0.39796
H          0.36016        6.42671       -0.54484
H         -0.94577        6.88178        0.55031
H          0.42022        5.05270        1.57397
H          0.43025        6.51470        2.52977

--Link1--
%chk=JID_10251.chk
%mem=8GB
%nprocshared=4
# B3LYP/6-311++G(d,p) empiricaldispersion=gd3bj scf=xqc pop=npa geom=check

CID_137811696_JID_10251_Energie_neutraal

0 1

--Link1--
%chk=JID_10251.chk
%mem=8GB
%nprocshared=4
# B3LYP/6-311++G(d,p) empiricaldispersion=gd3bj scf=xqc pop=npa geom=check

CID_137811696_JID_10251_Energie_kation

1 2

--Link1--
%chk=JID_10251.chk
%mem=8GB
%nprocshared=4
# B3LYP/6-311++G(d,p) empiricaldispersion=gd3bj scf=xqc pop=npa geom=check

CID_137811696_JID_10251_Energie_anion

-1 2
