%chk=JID_8526.chk
%mem=8GB
%nprocshared=4
# opt freq B3LYP/6-31G(d) empiricaldispersion=gd3bj scf=xqc

CID_151636597_JID_8526_neutraal

0 1
C          1.34400       -0.22500        0.03600
C          0.89612        1.09389        0.03956
C         -0.47164        1.36547        0.07840
C         -1.40593        0.31988        0.12553
C         -0.94405       -1.00364        0.10031
C          0.42529       -1.27327        0.05893
C         -2.88670        0.61568        0.19218
O         -3.18751        1.62251        1.16498
O         -2.76197        1.08208        2.45808
C         -3.87516        0.82901        3.19596
O         -5.03618        1.04117        2.88764
C         -3.46540        0.23582        4.48484
C         -2.21663       -0.36392        4.69169
C         -1.93638       -0.91114        5.93712
C         -2.89978       -0.84306        6.93252
N         -4.11583       -0.27300        6.76099
C         -4.37371        0.25013        5.53672
O         -0.74570       -1.51550        6.20272
H          2.40977       -0.43616        0.00213
H          1.61094        1.91231        0.01163
H         -0.80949        2.40026        0.08638
H         -1.64616       -1.83445        0.11613
H          0.77659       -2.30195        0.04034
H         -3.22414        0.97842       -0.78450
H         -3.46532       -0.28443        0.43000
H         -1.48309       -0.41124        3.89277
H         -2.71359       -1.25908        7.91849
H         -5.36025        0.69625        5.42966
H         -0.17906       -1.47544        5.41358

--Link1--
%chk=JID_8526.chk
%mem=8GB
%nprocshared=4
# B3LYP/6-311++G(d,p) empiricaldispersion=gd3bj scf=xqc pop=npa geom=check

CID_151636597_JID_8526_Energie_neutraal

0 1

--Link1--
%chk=JID_8526.chk
%mem=8GB
%nprocshared=4
# B3LYP/6-311++G(d,p) empiricaldispersion=gd3bj scf=xqc pop=npa geom=check

CID_151636597_JID_8526_Energie_kation

1 2

--Link1--
%chk=JID_8526.chk
%mem=8GB
%nprocshared=4
# B3LYP/6-311++G(d,p) empiricaldispersion=gd3bj scf=xqc pop=npa geom=check

CID_151636597_JID_8526_Energie_anion

-1 2
