%chk=JID_8277.chk
%mem=8GB
%nprocshared=4
# opt freq B3LYP/6-31G(d) empiricaldispersion=gd3bj scf=xqc

CID_113669143_JID_8277_neutraal

0 1
C          1.02995        0.06147        0.07297
C          0.12678        0.10803       -1.15220
N          0.86457       -0.35282       -2.32890
C          0.09258       -0.21696       -3.57725
C         -1.06363       -1.25346       -3.69224
C         -1.94802       -0.99601       -4.92575
C         -3.14016       -1.94940       -4.96502
C         -2.68942       -3.40642       -4.93394
C         -1.79042       -3.69695       -3.72538
C         -0.60055       -2.72415       -3.67361
C         -1.29976       -5.14388       -3.76043
C          1.12157       -0.34906       -4.68360
C          0.94480        0.34758       -6.01390
C          1.99320        0.84692       -5.05015
C          3.45204        0.62689       -5.32283
C          3.73309        0.31639       -6.79132
C          2.80594       -0.77820       -7.31262
C          1.35026       -0.31548       -7.29602
H          1.38065       -0.95795        0.26652
H          0.48298        0.40382        0.95735
H          1.90496        0.70813       -0.05288
H         -0.74305       -0.52744       -0.96076
H         -0.22288        1.13698       -1.29428
H          1.71308        0.20726       -2.41469
H         -0.33650        0.79324       -3.62263
H         -1.71769       -1.11103       -2.82132
H         -2.31449        0.03717       -4.91520
H         -1.37002       -1.12639       -5.84681
H         -3.72824       -1.76564       -5.87128
H         -3.79903       -1.75011       -4.11096
H         -2.15212       -3.63638       -5.86306
H         -3.57152       -4.05730       -4.90874
H         -2.38456       -3.56406       -2.81150
H          0.05485       -2.92344       -4.53019
H         -0.01421       -2.92215       -2.76858
H         -0.68237       -5.36644       -2.88392
H         -2.14469       -5.84048       -3.76143
H         -0.69940       -5.33928       -4.65566
H          1.60191       -1.32187       -4.67540
H          0.05834        0.95774       -6.15085
H          1.80817        1.79062       -4.54991
H          4.01637        1.52119       -5.03346
H          3.82379       -0.19074       -4.69334
H          4.77780        0.00558       -6.90387
H          3.60073        1.22380       -7.39362
H          2.92204       -1.68100       -6.70077
H          3.08825       -1.05057       -8.33590
H          0.68898       -1.16559       -7.49821
H          1.20047        0.40142       -8.11281

--Link1--
%chk=JID_8277.chk
%mem=8GB
%nprocshared=4
# B3LYP/6-311++G(d,p) empiricaldispersion=gd3bj scf=xqc pop=npa geom=check

CID_113669143_JID_8277_Energie_neutraal

0 1

--Link1--
%chk=JID_8277.chk
%mem=8GB
%nprocshared=4
# B3LYP/6-311++G(d,p) empiricaldispersion=gd3bj scf=xqc pop=npa geom=check

CID_113669143_JID_8277_Energie_kation

1 2

--Link1--
%chk=JID_8277.chk
%mem=8GB
%nprocshared=4
# B3LYP/6-311++G(d,p) empiricaldispersion=gd3bj scf=xqc pop=npa geom=check

CID_113669143_JID_8277_Energie_anion

-1 2
