%chk=JID_3253.chk
%mem=8GB
%nprocshared=4
# opt freq B3LYP/6-31G(d) empiricaldispersion=gd3bj scf=xqc

CID_116869630_JID_3253_neutraal

0 1
C          2.62500       -0.32100        0.00300
C          1.19592        0.11127       -0.10214
C          0.03749       -0.65426        0.02732
S         -1.37068        0.29354       -0.27740
C         -0.47678        1.71940       -0.48206
C          0.87077        1.48910       -0.37166
C         -0.07173       -2.20697        0.30199
C          0.53747       -2.98999       -0.90458
O          1.68632       -3.40048       -0.13112
C          1.08286       -2.89033        1.07483
C         -1.46266       -2.75161        0.69212
C         -1.80851       -2.57402        2.17770
N         -2.00770       -1.19887        2.60544
H          3.29621        0.46559       -0.36083
H          2.89698       -0.51525        1.04375
H          2.82520       -1.20427       -0.60629
H         -0.97284        2.65741       -0.69094
H          1.60773        2.27477       -0.49490
H         -0.02664       -3.86037       -1.25750
H          0.83461       -2.40160       -1.77910
H          1.75466       -2.24993        1.64826
H          0.80119       -3.72609        1.72544
H         -2.25551       -2.34502        0.05447
H         -1.48586       -3.83497        0.50672
H         -2.73601       -3.12180        2.38060
H         -1.04270       -3.02695        2.81451
H         -2.70323       -0.75136        2.00679
H         -1.15532       -0.65560        2.46337

--Link1--
%chk=JID_3253.chk
%mem=8GB
%nprocshared=4
# B3LYP/6-311++G(d,p) empiricaldispersion=gd3bj scf=xqc pop=npa geom=check

CID_116869630_JID_3253_Energie_neutraal

0 1

--Link1--
%chk=JID_3253.chk
%mem=8GB
%nprocshared=4
# B3LYP/6-311++G(d,p) empiricaldispersion=gd3bj scf=xqc pop=npa geom=check

CID_116869630_JID_3253_Energie_kation

1 2

--Link1--
%chk=JID_3253.chk
%mem=8GB
%nprocshared=4
# B3LYP/6-311++G(d,p) empiricaldispersion=gd3bj scf=xqc pop=npa geom=check

CID_116869630_JID_3253_Energie_anion

-1 2
