%chk=JID_9433.chk
%mem=8GB
%nprocshared=4
# opt freq B3LYP/6-31G(d) empiricaldispersion=gd3bj scf=xqc

CID_138341258_JID_9433_neutraal

0 1
C          0.91775       -0.02135       -0.05271
C          0.85186        1.49028       -0.17963
O          1.38806        1.89530       -1.44376
C          2.70464        2.25971       -1.43661
C          3.25292        3.15622       -0.52309
C          4.60811        3.49537       -0.59956
C          5.41313        2.98427       -1.62097
C          4.84839        2.10615       -2.55001
C          3.49838        1.75213       -2.46307
N          6.82182        3.28611       -1.71097
C          7.24647        4.69172       -1.50813
C          8.10257        5.02271       -0.30596
O          9.33033        5.09954       -0.40002
C          7.41320        5.26184        1.01145
S          7.87190        2.04053       -1.15739
O          7.96084        2.18643        0.28277
O          7.41826        0.78280       -1.71824
C          9.43007        2.38990       -1.84620
C          9.59592        2.40733       -3.17599
H          0.40123       -0.50126       -0.89049
H          0.45737       -0.35307        0.88224
H          1.95572       -0.36887       -0.07537
H         -0.19674        1.80659       -0.16379
H          1.33686        1.96051        0.68119
H          2.64162        3.61397        0.24824
H          5.00422        4.16810        0.14995
H          5.45673        1.68007       -3.34411
H          3.07206        1.06594       -3.19024
H          7.82117        4.98327       -2.39744
H          6.38891        5.37511       -1.50450
H          6.66088        6.04590        0.89644
H          6.94875        4.34292        1.37198
H          8.14652        5.59213        1.75277
H         10.23683        2.59663       -1.15655
H         10.56704        2.63070       -3.60566
H          8.77876        2.19226       -3.85885

--Link1--
%chk=JID_9433.chk
%mem=8GB
%nprocshared=4
# B3LYP/6-311++G(d,p) empiricaldispersion=gd3bj scf=xqc pop=npa geom=check

CID_138341258_JID_9433_Energie_neutraal

0 1

--Link1--
%chk=JID_9433.chk
%mem=8GB
%nprocshared=4
# B3LYP/6-311++G(d,p) empiricaldispersion=gd3bj scf=xqc pop=npa geom=check

CID_138341258_JID_9433_Energie_kation

1 2

--Link1--
%chk=JID_9433.chk
%mem=8GB
%nprocshared=4
# B3LYP/6-311++G(d,p) empiricaldispersion=gd3bj scf=xqc pop=npa geom=check

CID_138341258_JID_9433_Energie_anion

-1 2
