%chk=JID_10450.chk
%mem=8GB
%nprocshared=4
# opt freq B3LYP/6-31G(d) empiricaldispersion=gd3bj scf=xqc

CID_79417371_JID_10450_neutraal

0 1
C          2.49200        0.00400       -0.01400
C          1.01222       -0.16152       -0.18988
C          0.45083       -1.44486       -0.18065
C         -0.91822       -1.64717       -0.41396
C         -1.72437       -0.52475       -0.65394
C         -1.17459        0.75846       -0.66444
C          0.18958        0.93934       -0.44082
C         -1.53910       -3.04173       -0.40728
C         -1.26454       -3.84194       -1.70660
C          0.15182       -4.27237       -1.92263
N          1.11508       -3.53064       -2.43465
C          2.20412       -4.34584       -2.41431
N          1.98267       -5.56782       -1.93285
N          0.65990       -5.52518       -1.67953
C         -0.01106       -6.71934       -1.20970
C         -0.60724       -7.57641       -2.33816
C          0.47675       -8.24096       -3.19024
C         -1.52200       -8.64782       -1.74153
C         -1.21052       -3.84934        0.87222
N         -1.71580       -3.20972        2.08949
H          2.88209       -0.72229        0.70684
H          3.00092       -0.13708       -0.97252
H          2.73239        1.00158        0.36839
H          1.10727       -2.29623       -0.01357
H         -2.79067       -0.63954       -0.83498
H         -1.81036        1.61863       -0.85688
H          0.60690        1.94276       -0.47171
H         -2.63057       -2.89695       -0.39176
H         -1.92379       -4.71817       -1.72746
H         -1.56203       -3.23004       -2.56903
H          3.18412       -4.03898       -2.75561
H          0.71134       -7.29379       -0.61657
H         -0.79695       -6.39946       -0.52066
H         -1.21392       -6.94054       -2.99542
H          1.15260       -8.84396       -2.57419
H          0.03007       -8.89882       -3.94346
H          1.07484       -7.49648       -3.72436
H         -2.33626       -8.18926       -1.17045
H         -1.97230       -9.25963       -2.53027
H         -0.96885       -9.31314       -1.06971
H         -1.68204       -4.83507        0.80975
H         -0.13234       -4.00909        0.97755
H         -1.33175       -3.68052        2.90766
H         -1.36629       -2.24923        2.13124

--Link1--
%chk=JID_10450.chk
%mem=8GB
%nprocshared=4
# B3LYP/6-311++G(d,p) empiricaldispersion=gd3bj scf=xqc pop=npa geom=check

CID_79417371_JID_10450_Energie_neutraal

0 1

--Link1--
%chk=JID_10450.chk
%mem=8GB
%nprocshared=4
# B3LYP/6-311++G(d,p) empiricaldispersion=gd3bj scf=xqc pop=npa geom=check

CID_79417371_JID_10450_Energie_kation

1 2

--Link1--
%chk=JID_10450.chk
%mem=8GB
%nprocshared=4
# B3LYP/6-311++G(d,p) empiricaldispersion=gd3bj scf=xqc pop=npa geom=check

CID_79417371_JID_10450_Energie_anion

-1 2
