%chk=JID_2902.chk
%mem=8GB
%nprocshared=4
# opt freq B3LYP/6-31G(d) empiricaldispersion=gd3bj scf=xqc

CID_91454922_JID_2902_neutraal

0 1
C          1.04970       -0.07056       -0.05051
C          0.99300       -1.06134        1.09865
C          1.31230       -0.37338        2.41344
N          0.45572        0.12899        3.23210
C         -0.98940        0.07280        2.98829
C         -1.62762        1.28568        3.67867
C         -1.62031        1.13762        5.19969
C         -2.24155       -0.18731        5.63440
N         -1.57916       -1.33174        5.01394
C         -1.59789       -1.23474        3.54874
C          2.77872       -0.26206        2.79718
C          3.22364       -1.50076        3.55259
H          0.33313        0.74451        0.09289
H          0.81603       -0.57029       -0.99558
H          2.04502        0.37675       -0.13907
H          0.01326       -1.54270        1.13494
H          1.72677       -1.85745        0.93233
H         -1.21068        0.15196        1.91831
H         -1.10710        2.20829        3.39573
H         -2.66603        1.38582        3.33789
H         -0.59140        1.20438        5.57473
H         -2.17521        1.96850        5.65031
H         -2.16111       -0.28028        6.72298
H         -3.31133       -0.19833        5.39199
H         -2.03515       -2.19368        5.30572
H         -2.63445       -1.32489        3.19962
H         -1.05517       -2.09781        3.14863
H          3.38254       -0.13031        1.89389
H          2.91932        0.62633        3.42304
H          3.11545       -2.39985        2.93739
H          4.27410       -1.41165        3.84573
H          2.62512       -1.64486        4.45827

--Link1--
%chk=JID_2902.chk
%mem=8GB
%nprocshared=4
# B3LYP/6-311++G(d,p) empiricaldispersion=gd3bj scf=xqc pop=npa geom=check

CID_91454922_JID_2902_Energie_neutraal

0 1

--Link1--
%chk=JID_2902.chk
%mem=8GB
%nprocshared=4
# B3LYP/6-311++G(d,p) empiricaldispersion=gd3bj scf=xqc pop=npa geom=check

CID_91454922_JID_2902_Energie_kation

1 2

--Link1--
%chk=JID_2902.chk
%mem=8GB
%nprocshared=4
# B3LYP/6-311++G(d,p) empiricaldispersion=gd3bj scf=xqc pop=npa geom=check

CID_91454922_JID_2902_Energie_anion

-1 2
