%chk=JID_3437.chk
%mem=8GB
%nprocshared=4
# opt freq B3LYP/6-31G(d) empiricaldispersion=gd3bj scf=xqc

CID_115578319_JID_3437_neutraal

0 1
C          1.04335       -0.07954       -0.04235
C          1.40140        1.36317        0.28262
C          1.69389        2.21196       -0.95865
C          0.48491        2.48722       -1.85067
N         -0.51606        3.31324       -1.18151
C         -1.36976        4.12372       -1.88722
S         -3.00424        3.76982       -1.71885
N         -0.82565        5.16815       -2.63709
C          0.55105        5.65814       -2.44209
C          1.39264        5.61079       -3.71061
C         -1.66462        5.93669       -3.55252
C         -2.63215        6.97412       -3.03162
C         -1.47860        7.40035       -3.87977
H          0.09938       -0.14404       -0.59108
H          0.93066       -0.65572        0.88166
H          1.82661       -0.55306       -0.64266
H          0.60143        1.81570        0.87887
H          2.29766        1.35915        0.91470
H          2.11888        3.16754       -0.62794
H          2.46737        1.71457       -1.55627
H          0.80345        2.96441       -2.77889
H         -0.01029        1.55647       -2.14788
H         -1.06385        2.75568       -0.53457
H          0.49186        6.68563       -2.06677
H          1.05613        5.10069       -1.65047
H          0.99957        6.27727       -4.48378
H          2.41839        5.92428       -3.49262
H          1.42604        4.60347       -4.13471
H         -2.00826        5.31971       -4.38223
H         -3.62562        6.99407       -3.46398
H         -2.60351        7.21922       -1.97617
H         -0.70472        7.98314       -3.39860
H         -1.68798        7.71613       -4.89605

--Link1--
%chk=JID_3437.chk
%mem=8GB
%nprocshared=4
# B3LYP/6-311++G(d,p) empiricaldispersion=gd3bj scf=xqc pop=npa geom=check

CID_115578319_JID_3437_Energie_neutraal

0 1

--Link1--
%chk=JID_3437.chk
%mem=8GB
%nprocshared=4
# B3LYP/6-311++G(d,p) empiricaldispersion=gd3bj scf=xqc pop=npa geom=check

CID_115578319_JID_3437_Energie_kation

1 2

--Link1--
%chk=JID_3437.chk
%mem=8GB
%nprocshared=4
# B3LYP/6-311++G(d,p) empiricaldispersion=gd3bj scf=xqc pop=npa geom=check

CID_115578319_JID_3437_Energie_anion

-1 2
