%chk=JID_7925.chk
%mem=8GB
%nprocshared=4
# opt freq B3LYP/6-31G(d) empiricaldispersion=gd3bj scf=xqc

CID_113342019_JID_7925_neutraal

0 1
C          1.02662        0.04785        0.08367
C          0.51995        0.38137       -1.31004
C          0.08533        0.66746       -2.50558
C         -0.42134        1.00098       -3.89929
N          0.69755        0.87368       -4.81704
C          0.35040        1.12688       -6.21303
C          0.45614        2.55919       -6.70868
C          0.42898        2.79694       -8.10317
C          0.47952        4.10931       -8.60876
C          0.63013        5.18205       -7.73065
C          0.67703        4.96260       -6.35734
C          0.58054        3.66498       -5.85066
O          0.41606        4.46691       -9.93309
C         -0.39625        3.61046      -10.73482
C          0.39100        2.40211      -11.21097
C          1.15958        1.75768      -10.07168
O          0.34376        1.67669       -8.90172
H          0.66640       -0.93962        0.38530
H          0.66654        0.79192        0.79960
H          2.12013        0.04565        0.09251
H         -1.21626        0.29123       -4.15416
H         -0.84670        2.00886       -3.89160
H          1.48327        1.44965       -4.52872
H          1.05922        0.52572       -6.79601
H         -0.65067        0.73954       -6.44088
H          0.69287        6.19495       -8.11977
H          0.78203        5.80481       -5.67779
H          0.61644        3.54131       -4.77231
H         -0.72069        4.19084      -11.60593
H         -1.31413        3.32245      -10.20466
H         -0.30760        1.68258      -11.65306
H          1.10137        2.68947      -11.99454
H          1.43341        0.73457      -10.35311
H          2.10538        2.27834       -9.86768

--Link1--
%chk=JID_7925.chk
%mem=8GB
%nprocshared=4
# B3LYP/6-311++G(d,p) empiricaldispersion=gd3bj scf=xqc pop=npa geom=check

CID_113342019_JID_7925_Energie_neutraal

0 1

--Link1--
%chk=JID_7925.chk
%mem=8GB
%nprocshared=4
# B3LYP/6-311++G(d,p) empiricaldispersion=gd3bj scf=xqc pop=npa geom=check

CID_113342019_JID_7925_Energie_kation

1 2

--Link1--
%chk=JID_7925.chk
%mem=8GB
%nprocshared=4
# B3LYP/6-311++G(d,p) empiricaldispersion=gd3bj scf=xqc pop=npa geom=check

CID_113342019_JID_7925_Energie_anion

-1 2
