%chk=JID_6023.chk
%mem=8GB
%nprocshared=4
# opt freq B3LYP/6-31G(d) empiricaldispersion=gd3bj scf=xqc

CID_79358470_JID_6023_neutraal

0 1
C          1.07414        0.06525        0.01566
C          1.15217        1.13921        1.08897
C          1.62334        2.44744        0.54636
C          2.92681        2.89682        0.49038
S          2.97794        4.45113       -0.21992
C          1.26187        4.42937       -0.39942
N          0.68716        3.33075        0.03449
N          0.53075        5.42591       -0.95112
C          0.95533        6.80829       -0.86379
C         -0.13494        7.68248       -1.41275
C          0.12107        9.01588       -2.11172
C         -0.44010        7.81320       -2.90231
C          0.42635        7.10610       -3.92269
C         -1.89847        7.81127       -3.31229
C         -0.80045       10.16529       -1.75429
C          1.53093        9.49853       -2.37392
H          0.38495        0.35583       -0.78459
H          0.71946       -0.87676        0.44551
H          2.05559       -0.11458       -0.43619
H          0.16300        1.27086        1.54325
H          1.82445        0.80660        1.88875
H          3.82617        2.39735        0.81957
H         -0.46777        5.28439       -0.84236
H          1.12291        7.08887        0.18338
H          1.89894        6.94855       -1.39678
H         -0.98700        7.64749       -0.73651
H          0.02379        6.10963       -4.13554
H          0.43662        7.67465       -4.85869
H          1.46199        6.96630       -3.60647
H         -2.56763        8.12024       -2.50394
H         -2.05118        8.48551       -4.16131
H         -2.20958        6.80508       -3.61365
H         -0.33473       10.80645       -0.99790
H         -1.00349       10.77450       -2.64111
H         -1.75667        9.83088       -1.34119
H          2.23555        8.70769       -2.63643
H          1.52957       10.22040       -3.19786
H          1.92661       10.00011       -1.48399

--Link1--
%chk=JID_6023.chk
%mem=8GB
%nprocshared=4
# B3LYP/6-311++G(d,p) empiricaldispersion=gd3bj scf=xqc pop=npa geom=check

CID_79358470_JID_6023_Energie_neutraal

0 1

--Link1--
%chk=JID_6023.chk
%mem=8GB
%nprocshared=4
# B3LYP/6-311++G(d,p) empiricaldispersion=gd3bj scf=xqc pop=npa geom=check

CID_79358470_JID_6023_Energie_kation

1 2

--Link1--
%chk=JID_6023.chk
%mem=8GB
%nprocshared=4
# B3LYP/6-311++G(d,p) empiricaldispersion=gd3bj scf=xqc pop=npa geom=check

CID_79358470_JID_6023_Energie_anion

-1 2
