%chk=JID_10310.chk
%mem=8GB
%nprocshared=4
# opt freq B3LYP/6-31G(d) empiricaldispersion=gd3bj scf=xqc

CID_112747438_JID_10310_neutraal

0 1
C          1.08363       -0.05225       -0.01663
C         -0.38398        0.13568        0.33930
C         -1.10740       -1.17842        0.66266
C         -0.61938       -1.86082        1.91920
C         -0.89761       -1.35849        3.19219
N         -0.38935       -1.90559        4.31578
C          0.38561       -2.97803        4.15341
N          0.68973       -3.56265        2.99288
C          0.18592       -3.00246        1.87855
N          0.46234       -3.62279        0.63105
C         -0.55195       -4.66234        0.38363
C         -0.35342       -5.22954       -1.01676
C          1.07389       -5.74965       -1.19189
C          2.15149       -4.69519       -0.82920
C          1.84049       -4.15220        0.58683
C          2.20258       -3.53529       -1.84527
C          3.54079       -5.36323       -0.81517
O          1.23968       -6.24054       -2.52207
N         -1.72191       -0.20259        3.33511
N         -1.92532        0.27124        4.66126
H          1.65505       -0.44928        0.82760
H          1.52777        0.90829       -0.29687
H          1.19613       -0.73439       -0.86419
H         -0.46041        0.84217        1.17279
H         -0.88816        0.60473       -0.51445
H         -2.18180       -0.98039        0.76571
H         -1.03822       -1.84064       -0.20754
H          0.80389       -3.42216        5.04969
H         -0.47871       -5.46848        1.12644
H         -1.56532       -4.24596        0.44661
H         -0.57598       -4.46595       -1.77229
H         -1.06829       -6.04102       -1.19942
H          1.19708       -6.61897       -0.53281
H          2.55499       -3.35621        0.83762
H          1.97314       -4.95952        1.32119
H          2.93381       -2.77903       -1.53668
H          2.50029       -3.88520       -2.83975
H          1.23640       -3.03209       -1.94743
H          3.57181       -6.19896       -0.10713
H          3.80728       -5.75439       -1.80324
H          4.31833       -4.64994       -0.51899
H          1.00111       -5.52875       -3.14016
H         -2.59134       -0.34648        2.81744
H         -2.00365       -0.54404        5.28281
H         -1.05196        0.70763        4.97461

--Link1--
%chk=JID_10310.chk
%mem=8GB
%nprocshared=4
# B3LYP/6-311++G(d,p) empiricaldispersion=gd3bj scf=xqc pop=npa geom=check

CID_112747438_JID_10310_Energie_neutraal

0 1

--Link1--
%chk=JID_10310.chk
%mem=8GB
%nprocshared=4
# B3LYP/6-311++G(d,p) empiricaldispersion=gd3bj scf=xqc pop=npa geom=check

CID_112747438_JID_10310_Energie_kation

1 2

--Link1--
%chk=JID_10310.chk
%mem=8GB
%nprocshared=4
# B3LYP/6-311++G(d,p) empiricaldispersion=gd3bj scf=xqc pop=npa geom=check

CID_112747438_JID_10310_Energie_anion

-1 2
