%chk=JID_5922.chk
%mem=8GB
%nprocshared=4
# opt freq B3LYP/6-31G(d) empiricaldispersion=gd3bj scf=xqc

CID_123819835_JID_5922_neutraal

0 1
C          0.90367       -0.02148        0.01607
C          0.71950        1.48446        0.19821
C          1.03531        2.37938       -1.03521
C          0.31539        1.79031       -2.27917
C          0.45140        3.83013       -0.84092
C          0.79173        4.70238        0.41333
C          2.30951        4.77089        0.67041
C          0.32025        6.17580        0.18731
C         -1.12994        6.36995       -0.24565
C          0.03731        4.18257        1.64932
O         -1.11568        3.76732        1.62656
O          0.78339        4.28048        2.78448
C          0.13108        3.80173        3.96104
C          2.51100        2.46184       -1.42425
C          3.57388        1.93637       -0.79926
H          0.16306       -0.43128       -0.67762
H          0.75968       -0.52860        0.97616
H          1.89839       -0.28218       -0.35190
H         -0.32947        1.62916        0.48290
H          1.32220        1.80080        1.05714
H         -0.75062        1.63078       -2.07969
H          0.38883        2.46430       -3.14186
H          0.74743        0.83118       -2.58774
H          0.72819        4.41748       -1.72992
H         -0.64270        3.73443       -0.89301
H          2.85616        5.03649       -0.24080
H          2.55340        5.53566        1.41851
H          2.70163        3.82763        1.06005
H          0.47175        6.75029        1.11121
H          0.95803        6.64380       -0.57439
H         -1.83249        5.96064        0.48469
H         -1.34484        7.43966       -0.34203
H         -1.32744        5.91145       -1.21863
H         -0.75993        4.39980        4.17515
H         -0.12641        2.74333        3.85296
H          0.82682        3.90366        4.79847
H          2.71561        3.02533       -2.33678
H          4.57312        2.07866       -1.20119
H          3.49623        1.36954        0.12147

--Link1--
%chk=JID_5922.chk
%mem=8GB
%nprocshared=4
# B3LYP/6-311++G(d,p) empiricaldispersion=gd3bj scf=xqc pop=npa geom=check

CID_123819835_JID_5922_Energie_neutraal

0 1

--Link1--
%chk=JID_5922.chk
%mem=8GB
%nprocshared=4
# B3LYP/6-311++G(d,p) empiricaldispersion=gd3bj scf=xqc pop=npa geom=check

CID_123819835_JID_5922_Energie_kation

1 2

--Link1--
%chk=JID_5922.chk
%mem=8GB
%nprocshared=4
# B3LYP/6-311++G(d,p) empiricaldispersion=gd3bj scf=xqc pop=npa geom=check

CID_123819835_JID_5922_Energie_anion

-1 2
