%chk=JID_4844.chk
%mem=8GB
%nprocshared=4
# opt freq B3LYP/6-31G(d) empiricaldispersion=gd3bj scf=xqc

CID_133631841_JID_4844_neutraal

0 1
C          1.05965        0.05465        0.05879
C          0.93594        0.72721        1.42279
C          1.08047        2.22769        1.33887
C          0.17560        3.22745        1.32725
C          0.58501        4.67364        1.26655
C         -1.31880        2.94970        1.32486
C         -2.60070        2.71145        1.32280
C         -4.09511        2.43371        1.32041
C         -4.81342        3.35912        0.33109
C         -4.55181        2.98895       -1.12936
C         -4.85961        1.52040       -1.40344
C         -4.10218        0.59798       -0.45366
C         -4.36374        0.95601        1.00985
O         -0.27026        0.31770        2.04474
H          0.24586        0.36396       -0.60717
H          0.98469       -1.03333        0.16203
H          2.01289        0.29546       -0.42250
H          1.74277        0.35680        2.06576
H          2.12919        2.52452        1.29521
H          0.17820        5.14662        0.36653
H          0.20643        5.21131        2.14219
H          1.67298        4.79586        1.24495
H         -4.46046        2.65105        2.33221
H         -5.89378        3.30139        0.51700
H         -4.52094        4.40293        0.49890
H         -3.50582        3.19756       -1.38452
H         -5.16650        3.61999       -1.78150
H         -4.59959        1.27657       -2.43967
H         -5.93768        1.34808       -1.29618
H         -3.02755        0.65636       -0.66505
H         -4.40235       -0.44048       -0.63469
H         -3.75556        0.31045        1.65538
H         -5.41345        0.73328        1.24115
H         -0.99793        0.54861        1.44434

--Link1--
%chk=JID_4844.chk
%mem=8GB
%nprocshared=4
# B3LYP/6-311++G(d,p) empiricaldispersion=gd3bj scf=xqc pop=npa geom=check

CID_133631841_JID_4844_Energie_neutraal

0 1

--Link1--
%chk=JID_4844.chk
%mem=8GB
%nprocshared=4
# B3LYP/6-311++G(d,p) empiricaldispersion=gd3bj scf=xqc pop=npa geom=check

CID_133631841_JID_4844_Energie_kation

1 2

--Link1--
%chk=JID_4844.chk
%mem=8GB
%nprocshared=4
# B3LYP/6-311++G(d,p) empiricaldispersion=gd3bj scf=xqc pop=npa geom=check

CID_133631841_JID_4844_Energie_anion

-1 2
