%chk=JID_7875.chk
%mem=8GB
%nprocshared=4
# opt freq B3LYP/6-31G(d) empiricaldispersion=gd3bj scf=xqc

CID_114139936_JID_7875_neutraal

0 1
C          0.92890       -0.01738        0.06814
C          0.17497        0.46251       -1.17911
C          1.07642        0.38181       -2.41611
N         -1.15596       -0.14776       -1.31428
C         -1.95474        0.40559       -2.40250
C         -1.29962       -1.59838       -1.16316
C         -0.81321       -2.50843       -2.30287
C          0.47000       -3.28011       -1.98521
N          0.21737       -4.33024       -0.99643
C          1.37168       -5.06578       -0.64630
N          2.54604       -4.85243       -1.28207
C          3.60477       -5.60005       -0.90570
C          3.48541       -6.54564        0.11248
N          2.32425       -6.80519        0.75600
C          1.27954       -6.05002        0.34332
N          4.80208       -5.32985       -1.57354
C          5.41568       -6.49133       -2.19405
H          1.26475       -1.05383       -0.01639
H          0.30125        0.06948        0.96209
H          1.81814        0.60086        0.23601
H         -0.00228        1.53344       -1.00563
H          1.32832       -0.64466       -2.68626
H          0.61096        0.85730       -3.28526
H          2.01900        0.91073       -2.23352
H         -1.59349        0.10696       -3.39115
H         -3.00001        0.08849       -2.31486
H         -1.96287        1.50062       -2.35969
H         -0.87816       -1.91216       -0.20255
H         -2.37435       -1.79325       -1.03831
H         -1.60897       -3.22835       -2.53642
H         -0.65714       -1.93271       -3.22116
H          0.82043       -3.73902       -2.91862
H          1.24767       -2.59677       -1.63297
H         -0.19189       -3.96621       -0.13994
H          4.33963       -7.12122        0.44948
H          0.33689       -6.25466        0.83932
H          4.55000       -4.62036       -2.26181
H          4.71432       -7.01142       -2.85598
H          6.26659       -6.16395       -2.80001
H          5.79883       -7.19342       -1.44663

--Link1--
%chk=JID_7875.chk
%mem=8GB
%nprocshared=4
# B3LYP/6-311++G(d,p) empiricaldispersion=gd3bj scf=xqc pop=npa geom=check

CID_114139936_JID_7875_Energie_neutraal

0 1

--Link1--
%chk=JID_7875.chk
%mem=8GB
%nprocshared=4
# B3LYP/6-311++G(d,p) empiricaldispersion=gd3bj scf=xqc pop=npa geom=check

CID_114139936_JID_7875_Energie_kation

1 2

--Link1--
%chk=JID_7875.chk
%mem=8GB
%nprocshared=4
# B3LYP/6-311++G(d,p) empiricaldispersion=gd3bj scf=xqc pop=npa geom=check

CID_114139936_JID_7875_Energie_anion

-1 2
