%chk=JID_549.chk
%mem=8GB
%nprocshared=4
# opt freq B3LYP/6-31G(d) empiricaldispersion=gd3bj scf=xqc

CID_68361296_JID_549_neutraal

0 1
C         -1.74700        0.00400       -0.45100
C         -0.56483       -0.11408        0.50027
C          0.52240        0.97891        0.37562
C          1.32645        0.02061       -0.53374
C          0.52284       -1.16386        0.10073
C          1.14753       -1.94616        1.26459
C          0.16978       -2.94358        1.89121
N         -0.10067       -4.07662        1.01251
C          2.79657        0.03273       -0.33965
C          3.59344       -0.58671       -1.21822
H         -2.36563        0.86775       -0.18699
H         -1.42680        0.12300       -1.49102
H         -2.37553       -0.89037       -0.39087
H         -0.93650       -0.21077        1.52792
H          0.20702        1.91608       -0.09318
H          0.99926        1.21915        1.33408
H          1.06391        0.17282       -1.59166
H          0.18912       -1.86289       -0.67827
H          2.03955       -2.48191        0.91712
H          1.48130       -1.25244        2.04618
H          0.60996       -3.33056        2.81678
H         -0.77408       -2.45786        2.15790
H         -0.74140       -4.71794        1.47834
H         -0.58184       -3.75779        0.17332
H          3.22086        0.54437        0.51944
H          4.67080       -0.58610       -1.08424
H          3.19820       -1.11012       -2.08359

--Link1--
%chk=JID_549.chk
%mem=8GB
%nprocshared=4
# B3LYP/6-311++G(d,p) empiricaldispersion=gd3bj scf=xqc pop=npa geom=check

CID_68361296_JID_549_Energie_neutraal

0 1

--Link1--
%chk=JID_549.chk
%mem=8GB
%nprocshared=4
# B3LYP/6-311++G(d,p) empiricaldispersion=gd3bj scf=xqc pop=npa geom=check

CID_68361296_JID_549_Energie_kation

1 2

--Link1--
%chk=JID_549.chk
%mem=8GB
%nprocshared=4
# B3LYP/6-311++G(d,p) empiricaldispersion=gd3bj scf=xqc pop=npa geom=check

CID_68361296_JID_549_Energie_anion

-1 2
