%chk=JID_3941.chk
%mem=8GB
%nprocshared=4
# opt freq B3LYP/6-31G(d) empiricaldispersion=gd3bj scf=xqc

CID_115319150_JID_3941_neutraal

0 1
C          1.09060       -0.03649        0.02144
N         -0.24405       -0.17170        0.59129
C         -1.19376        0.61788       -0.22326
C         -2.62378        0.05769       -0.25349
C         -3.48438        0.24072        0.99419
N         -3.70277        1.64613        1.32419
C         -0.16164        0.31589        1.96020
C          0.47585       -0.67676        2.92771
C         -0.28416       -2.00104        3.06460
C          1.12072       -2.01776        2.56692
C          0.80144       -0.00429        4.21467
C          2.27001        0.32865        4.42170
N          3.48831        0.60486        4.59345
H          1.37050        1.01422       -0.13191
H          1.12984       -0.53401       -0.95509
H          1.88765       -0.48874        0.61703
H         -1.18186        1.67907        0.05627
H         -0.86210        0.59085       -1.27129
H         -3.14611        0.52839       -1.09802
H         -2.58122       -1.01263       -0.49362
H         -4.46313       -0.21413        0.80369
H         -3.06178       -0.29110        1.85092
H         -4.33871        1.70968        2.11938
H         -2.83163        2.07731        1.62307
H          0.37884        1.27329        1.99824
H         -1.15663        0.53286        2.35881
H         -0.47538       -2.42035        4.04613
H         -1.06778       -2.22970        2.34737
H          1.25138       -2.32376        1.53560
H          1.88681       -2.42097        3.22157
H          0.22768        0.92310        4.34039
H          0.50789       -0.63416        5.06500

--Link1--
%chk=JID_3941.chk
%mem=8GB
%nprocshared=4
# B3LYP/6-311++G(d,p) empiricaldispersion=gd3bj scf=xqc pop=npa geom=check

CID_115319150_JID_3941_Energie_neutraal

0 1

--Link1--
%chk=JID_3941.chk
%mem=8GB
%nprocshared=4
# B3LYP/6-311++G(d,p) empiricaldispersion=gd3bj scf=xqc pop=npa geom=check

CID_115319150_JID_3941_Energie_kation

1 2

--Link1--
%chk=JID_3941.chk
%mem=8GB
%nprocshared=4
# B3LYP/6-311++G(d,p) empiricaldispersion=gd3bj scf=xqc pop=npa geom=check

CID_115319150_JID_3941_Energie_anion

-1 2
