%chk=JID_8943.chk
%mem=8GB
%nprocshared=4
# opt freq B3LYP/6-31G(d) empiricaldispersion=gd3bj scf=xqc

CID_114082405_JID_8943_neutraal

0 1
C          0.55700       -1.13000        0.25200
C         -0.91833       -0.87841        0.02275
N         -1.18296        0.46526        0.59380
C          0.06861        1.26035        0.36201
C          1.19386        0.24978        0.13772
C          2.33446        0.46004        1.11298
O          3.46592        0.75540        0.73971
N          2.05508        0.32083        2.43678
S         -1.74241        0.53290        2.21868
O         -0.72077       -0.12413        3.01386
O         -1.98468        1.94480        2.46786
C         -3.24419       -0.29683        2.28446
C         -4.38985        0.37174        2.06575
N         -5.62624       -0.22376        2.12578
C         -5.75950       -1.54206        2.46541
C         -4.70700       -2.33388        2.70409
C         -3.33969       -1.74412        2.58795
O         -2.36536       -2.47754        2.70942
H          0.71762       -1.58960        1.23283
H          0.96260       -1.82600       -0.48999
H         -1.13914       -0.83399       -1.05079
H         -1.54430       -1.66599        0.44034
H          0.27209        1.97236        1.16767
H         -0.09004        1.85541       -0.54570
H          1.59868        0.38541       -0.87351
H          1.13955        0.05190        2.80060
H          2.80468        0.44442        3.10388
H         -4.41760        1.43502        1.83773
H         -6.45969        0.35088        2.02031
H         -6.78149       -1.90459        2.52739
H         -4.78725       -3.37983        2.96556

--Link1--
%chk=JID_8943.chk
%mem=8GB
%nprocshared=4
# B3LYP/6-311++G(d,p) empiricaldispersion=gd3bj scf=xqc pop=npa geom=check

CID_114082405_JID_8943_Energie_neutraal

0 1

--Link1--
%chk=JID_8943.chk
%mem=8GB
%nprocshared=4
# B3LYP/6-311++G(d,p) empiricaldispersion=gd3bj scf=xqc pop=npa geom=check

CID_114082405_JID_8943_Energie_kation

1 2

--Link1--
%chk=JID_8943.chk
%mem=8GB
%nprocshared=4
# B3LYP/6-311++G(d,p) empiricaldispersion=gd3bj scf=xqc pop=npa geom=check

CID_114082405_JID_8943_Energie_anion

-1 2
