%chk=JID_8778.chk
%mem=8GB
%nprocshared=4
# opt freq B3LYP/6-31G(d) empiricaldispersion=gd3bj scf=xqc

CID_82047791_JID_8778_neutraal

0 1
C          1.03024       -0.07114        0.06344
O          0.01339       -0.94052       -0.40757
C          0.48872       -1.86185       -1.39151
C         -0.46351       -1.85785       -2.58483
C         -0.23329       -0.67134       -3.44920
N          0.52840       -0.59918       -4.53514
N          0.49993        0.71042       -5.00977
C         -0.27766        1.36041       -4.19338
N         -0.76320        0.56644       -3.21170
N         -1.56779        1.08892       -2.25231
C         -1.67602        2.35589       -2.54230
S         -0.83484        2.96112       -3.99033
C         -2.45666        3.32677       -1.70301
C         -1.74578        3.63696       -0.38168
C         -0.56308        4.59260       -0.51995
C         -1.01431        5.98389       -0.86810
O         -1.62750        6.74596       -0.14218
O         -0.71487        6.32386       -2.13444
H          0.59866        0.58432        0.82461
H          1.41152        0.54941       -0.75334
H          1.84543       -0.64436        0.51539
H          1.51817       -1.64054       -1.70132
H          0.48365       -2.85319       -0.92564
H         -0.29119       -2.75958       -3.18381
H         -1.50601       -1.87810       -2.24699
H         -2.68137        4.23868       -2.26426
H         -3.41676        2.84696       -1.47577
H         -2.47781        4.07039        0.31107
H         -1.38958        2.70601        0.07634
H         -0.02077        4.66082        0.43047
H          0.16177        4.23481       -1.25820
H         -1.06290        7.23605       -2.23065

--Link1--
%chk=JID_8778.chk
%mem=8GB
%nprocshared=4
# B3LYP/6-311++G(d,p) empiricaldispersion=gd3bj scf=xqc pop=npa geom=check

CID_82047791_JID_8778_Energie_neutraal

0 1

--Link1--
%chk=JID_8778.chk
%mem=8GB
%nprocshared=4
# B3LYP/6-311++G(d,p) empiricaldispersion=gd3bj scf=xqc pop=npa geom=check

CID_82047791_JID_8778_Energie_kation

1 2

--Link1--
%chk=JID_8778.chk
%mem=8GB
%nprocshared=4
# B3LYP/6-311++G(d,p) empiricaldispersion=gd3bj scf=xqc pop=npa geom=check

CID_82047791_JID_8778_Energie_anion

-1 2
