%chk=JID_2993.chk
%mem=8GB
%nprocshared=4
# opt freq B3LYP/6-31G(d) empiricaldispersion=gd3bj scf=xqc

CID_107234210_JID_2993_neutraal

0 1
C          0.97261       -0.06859        0.06742
C          0.65442        0.17505       -1.39129
C          0.99868       -1.04165       -2.24210
C          0.46594       -2.35659       -1.65880
C         -1.05406       -2.35659       -1.65880
C         -2.35792       -2.35659       -1.65880
N          0.96797       -3.43439       -2.52390
C          0.87092       -4.77280       -1.95464
C         -0.46634       -5.48574       -2.16611
C         -0.14113       -6.97563       -2.05407
C          1.37073       -7.09878       -2.23480
C          1.84028       -5.71701       -2.66907
H          0.26036       -0.75046        0.54127
H          0.91012        0.87655        0.61816
H          1.98641       -0.45961        0.20165
H         -0.40503        0.43426       -1.49731
H          1.22667        1.03635       -1.75515
H          0.61734       -0.87761       -3.25903
H          2.09274       -1.10176       -2.32583
H          0.84311       -2.51616       -0.64428
H         -3.42338       -2.35761       -1.65890
H          0.49726       -3.39177       -3.42631
H          1.12786       -4.76439       -0.88691
H         -1.22313       -5.19022       -1.43387
H         -0.86949       -5.27895       -3.16574
H         -0.68285       -7.54704       -2.81538
H         -0.43859       -7.36928       -1.07589
H          1.63818       -7.86970       -2.96386
H          1.83515       -7.37065       -1.27950
H          1.75621       -5.62415       -3.75967
H          2.88399       -5.53398       -2.39368

--Link1--
%chk=JID_2993.chk
%mem=8GB
%nprocshared=4
# B3LYP/6-311++G(d,p) empiricaldispersion=gd3bj scf=xqc pop=npa geom=check

CID_107234210_JID_2993_Energie_neutraal

0 1

--Link1--
%chk=JID_2993.chk
%mem=8GB
%nprocshared=4
# B3LYP/6-311++G(d,p) empiricaldispersion=gd3bj scf=xqc pop=npa geom=check

CID_107234210_JID_2993_Energie_kation

1 2

--Link1--
%chk=JID_2993.chk
%mem=8GB
%nprocshared=4
# B3LYP/6-311++G(d,p) empiricaldispersion=gd3bj scf=xqc pop=npa geom=check

CID_107234210_JID_2993_Energie_anion

-1 2
