%chk=JID_7399.chk
%mem=8GB
%nprocshared=4
# opt freq B3LYP/6-31G(d) empiricaldispersion=gd3bj scf=xqc

CID_69404208_JID_7399_neutraal

0 1
C          0.94267       -0.05597       -0.05984
C          0.37980       -1.47011        0.14680
C          0.96203       -2.13499        1.41989
N          0.65246       -1.44362        2.67096
C         -1.13970       -1.56990        0.08502
C         -1.98831       -0.48743        0.33446
C         -3.37714       -0.63805        0.25529
C         -3.95896       -1.87014       -0.05314
C         -3.12457       -2.95213       -0.29755
C         -1.73170       -2.80363       -0.23064
O         -5.31664       -1.83843       -0.09453
C         -6.17151       -2.99217       -0.11819
C         -6.16461       -3.67892       -1.48777
C         -5.92547       -3.94087        1.06061
C         -7.58264       -2.39486        0.07493
O         -7.88760       -1.22197        0.23166
O         -8.57041       -3.32110        0.06048
H          0.66681        0.62932        0.74779
H          0.58025        0.37352       -1.00060
H          2.03682       -0.08423       -0.10897
H          0.75310       -2.05366       -0.70810
H          0.59967       -3.16648        1.49976
H          2.05285       -2.19433        1.32233
H          1.07419       -1.94682        3.44981
H          1.06668       -0.51390        2.67024
H         -1.59440        0.48874        0.60112
H         -4.01635        0.22111        0.44883
H         -3.50366       -3.93322       -0.54809
H         -1.10624       -3.67205       -0.42836
H         -5.20250       -4.13136       -1.73268
H         -6.91669       -4.47331       -1.54766
H         -6.37767       -2.95384       -2.28221
H         -5.91986       -3.38619        2.00639
H         -6.69864       -4.71395        1.12970
H         -4.96648       -4.45876        0.99309
H         -9.38049       -2.78359        0.19250

--Link1--
%chk=JID_7399.chk
%mem=8GB
%nprocshared=4
# B3LYP/6-311++G(d,p) empiricaldispersion=gd3bj scf=xqc pop=npa geom=check

CID_69404208_JID_7399_Energie_neutraal

0 1

--Link1--
%chk=JID_7399.chk
%mem=8GB
%nprocshared=4
# B3LYP/6-311++G(d,p) empiricaldispersion=gd3bj scf=xqc pop=npa geom=check

CID_69404208_JID_7399_Energie_kation

1 2

--Link1--
%chk=JID_7399.chk
%mem=8GB
%nprocshared=4
# B3LYP/6-311++G(d,p) empiricaldispersion=gd3bj scf=xqc pop=npa geom=check

CID_69404208_JID_7399_Energie_anion

-1 2
