%chk=JID_37.chk
%mem=8GB
%nprocshared=4
# opt freq B3LYP/6-31G(d) empiricaldispersion=gd3bj scf=xqc

CID_153981733_JID_37_neutraal

0 1
C          1.06225        0.05713       -0.05349
C          0.35824       -0.23172        1.26371
C          0.76778        0.72742        2.38931
C          0.42233        2.21466        2.19710
C         -0.95346        2.52573        1.62194
O          0.35455        0.22365        3.66629
C         -1.04755        0.15718        4.01132
C         -1.40635       -0.80075        5.15842
O         -2.15711        0.23124        5.84480
C         -1.58654        1.23296        4.96703
H          0.81142        1.04939       -0.43851
H          0.76546       -0.67913       -0.80729
H          2.14911       -0.00052        0.06367
H         -0.72581       -0.21293        1.10841
H          0.59057       -1.25922        1.57142
H          1.86333        0.68684        2.45123
H          0.52360        2.73476        3.15727
H          1.16340        2.65717        1.51947
H         -1.76157        2.12797        2.23674
H         -1.09036        3.61076        1.56151
H         -1.06703        2.12845        0.60950
H         -1.68828       -0.01628        3.14038
H         -2.04046       -1.64592        4.87691
H         -0.56740       -1.15347        5.76647
H         -0.83077        1.83142        5.48526
H         -2.35588        1.88863        4.55141

--Link1--
%chk=JID_37.chk
%mem=8GB
%nprocshared=4
# B3LYP/6-311++G(d,p) empiricaldispersion=gd3bj scf=xqc pop=npa geom=check

CID_153981733_JID_37_Energie_neutraal

0 1

--Link1--
%chk=JID_37.chk
%mem=8GB
%nprocshared=4
# B3LYP/6-311++G(d,p) empiricaldispersion=gd3bj scf=xqc pop=npa geom=check

CID_153981733_JID_37_Energie_kation

1 2

--Link1--
%chk=JID_37.chk
%mem=8GB
%nprocshared=4
# B3LYP/6-311++G(d,p) empiricaldispersion=gd3bj scf=xqc pop=npa geom=check

CID_153981733_JID_37_Energie_anion

-1 2
