%chk=JID_8759.chk
%mem=8GB
%nprocshared=4
# opt freq B3LYP/6-31G(d) empiricaldispersion=gd3bj scf=xqc

CID_43417872_JID_8759_neutraal

0 1
C          0.93834       -0.07868       -0.00268
C          0.58529        1.37732       -0.27227
C          1.39314        1.98630       -1.42009
C          1.09962        1.39349       -2.74983
N          2.05837        1.15291       -3.65299
O          1.35183        0.63076       -4.73792
C          0.03661        0.62104       -4.37389
N         -0.17168        1.08139       -3.16095
C         -0.92666        0.07969       -5.36210
C         -2.22429        0.87634       -5.41291
C         -1.98589        2.23083       -6.03943
O         -1.73424        2.32978       -7.24151
N         -2.01862        3.36649       -5.29271
C         -2.41988        3.56295       -3.89350
C         -1.47841        4.55645       -3.19187
C         -1.56771        5.99617       -3.68107
C         -3.89919        3.97993       -3.80742
O         -4.74207        2.96280       -4.34613
H          0.69266       -0.71647       -0.85728
H          0.37713       -0.44757        0.86180
H          2.00550       -0.18938        0.21466
H         -0.48947        1.45833       -0.47433
H          0.78060        1.95680        0.63805
H          1.17222        3.05947       -1.47168
H          2.46363        1.89776       -1.19686
H         -0.46199        0.04887       -6.35505
H         -1.15521       -0.95628       -5.08584
H         -2.94492        0.35639       -6.05675
H         -2.69724        0.93846       -4.43195
H         -1.84716        4.19380       -5.85294
H         -2.31720        2.60690       -3.37641
H         -1.68892        4.54464       -2.11528
H         -0.44301        4.21496       -3.31258
H         -2.55398        6.42641       -3.48454
H         -0.83074        6.61262       -3.15561
H         -1.36121        6.07298       -4.75228
H         -4.19261        4.13716       -2.76477
H         -4.09740        4.90129       -4.36444
H         -4.55116        2.92427       -5.30051

--Link1--
%chk=JID_8759.chk
%mem=8GB
%nprocshared=4
# B3LYP/6-311++G(d,p) empiricaldispersion=gd3bj scf=xqc pop=npa geom=check

CID_43417872_JID_8759_Energie_neutraal

0 1

--Link1--
%chk=JID_8759.chk
%mem=8GB
%nprocshared=4
# B3LYP/6-311++G(d,p) empiricaldispersion=gd3bj scf=xqc pop=npa geom=check

CID_43417872_JID_8759_Energie_kation

1 2

--Link1--
%chk=JID_8759.chk
%mem=8GB
%nprocshared=4
# B3LYP/6-311++G(d,p) empiricaldispersion=gd3bj scf=xqc pop=npa geom=check

CID_43417872_JID_8759_Energie_anion

-1 2
