%chk=JID_6673.chk
%mem=8GB
%nprocshared=4
# opt freq B3LYP/6-31G(d) empiricaldispersion=gd3bj scf=xqc

CID_13388958_JID_6673_neutraal

0 1
C          1.04076       -0.06302       -0.06609
C          1.47532       -0.11837        1.38790
O          1.62130        1.20420        1.92139
C          2.82397        1.80811        1.70456
O          3.73065        1.34478        1.02025
C          2.89482        3.19540        2.37135
C          2.07490        4.12413        1.46353
N          2.43556        3.13400        3.79368
C          2.10467        4.44710        4.37311
C          3.43845        5.04130        4.78324
C          4.24501        3.84111        5.25716
C          3.47022        2.61521        4.75494
C          4.32075        1.43912        4.27085
O          3.97319        0.26685        4.35748
O          5.47929        1.85991        3.69044
C          6.29244        0.81278        3.15756
H          0.13072        0.53624       -0.17352
H          0.85039       -1.06851       -0.45181
H          1.80781        0.40894       -0.68790
H          0.70132       -0.61634        1.98132
H          2.39765       -0.69753        1.51095
H          3.93818        3.53150        2.32644
H          0.99926        3.94299        1.57012
H          2.27561        5.17782        1.68144
H          2.32620        3.96236        0.40857
H          1.48578        4.28516        5.26595
H          1.52209        5.11026        3.72949
H          3.93377        5.50920        3.92429
H          3.33234        5.79881        5.56560
H          5.27428        3.91265        4.89427
H          4.28810        3.82832        6.35300
H          2.91890        2.21724        5.62005
H          6.76335        0.25786        3.97424
H          5.71298        0.14052        2.51766
H          7.07737        1.27235        2.55039

--Link1--
%chk=JID_6673.chk
%mem=8GB
%nprocshared=4
# B3LYP/6-311++G(d,p) empiricaldispersion=gd3bj scf=xqc pop=npa geom=check

CID_13388958_JID_6673_Energie_neutraal

0 1

--Link1--
%chk=JID_6673.chk
%mem=8GB
%nprocshared=4
# B3LYP/6-311++G(d,p) empiricaldispersion=gd3bj scf=xqc pop=npa geom=check

CID_13388958_JID_6673_Energie_kation

1 2

--Link1--
%chk=JID_6673.chk
%mem=8GB
%nprocshared=4
# B3LYP/6-311++G(d,p) empiricaldispersion=gd3bj scf=xqc pop=npa geom=check

CID_13388958_JID_6673_Energie_anion

-1 2
