%chk=JID_8468.chk
%mem=8GB
%nprocshared=4
# opt freq B3LYP/6-31G(d) empiricaldispersion=gd3bj scf=xqc

CID_153654551_JID_8468_neutraal

0 1
C          2.49200        0.00400       -0.01400
C          0.99217       -0.02684        0.01712
C          0.31503       -1.10210        0.60431
C         -1.08324       -1.14920        0.60459
C         -1.82018       -0.12042        0.00702
C         -1.14410        0.94281       -0.60270
C          0.25229        0.98807       -0.59923
C         -3.29855       -0.12286       -0.02010
N         -4.00781        0.64574       -0.78763
C         -5.44023        0.31171       -0.48623
C         -6.08719       -0.26998       -1.74188
C         -7.60286       -0.37903       -1.59535
N         -8.19649        0.90219       -1.21538
C         -7.66556        1.37821        0.06153
C         -6.15217        1.57113        0.00167
C         -5.32005       -0.73447        0.61647
O         -6.21056       -1.28889        1.23760
N         -3.99324       -0.94408        0.79491
H          2.91283       -0.53302        0.84257
H          2.85672       -0.46014       -0.93545
H          2.86090        1.03389        0.03560
H          0.87501       -1.91535        1.06216
H         -1.56557       -2.00962        1.05591
H         -1.70132        1.74383       -1.08533
H          0.75687        1.82179       -1.08328
H         -5.67360       -1.26019       -1.97106
H         -5.85536        0.36895       -2.60482
H         -7.87088       -1.15313       -0.86699
H         -8.02940       -0.69212       -2.55489
H         -9.20727        0.78912       -1.13339
H         -8.13520        2.33927        0.29932
H         -7.94095        0.68876        0.86783
H         -5.78511        1.86705        0.99247
H         -5.92461        2.40664       -0.67425
H         -3.64310       -1.57177        1.49777

--Link1--
%chk=JID_8468.chk
%mem=8GB
%nprocshared=4
# B3LYP/6-311++G(d,p) empiricaldispersion=gd3bj scf=xqc pop=npa geom=check

CID_153654551_JID_8468_Energie_neutraal

0 1

--Link1--
%chk=JID_8468.chk
%mem=8GB
%nprocshared=4
# B3LYP/6-311++G(d,p) empiricaldispersion=gd3bj scf=xqc pop=npa geom=check

CID_153654551_JID_8468_Energie_kation

1 2

--Link1--
%chk=JID_8468.chk
%mem=8GB
%nprocshared=4
# B3LYP/6-311++G(d,p) empiricaldispersion=gd3bj scf=xqc pop=npa geom=check

CID_153654551_JID_8468_Energie_anion

-1 2
