%chk=JID_5218.chk
%mem=8GB
%nprocshared=4
# opt freq B3LYP/6-31G(d) empiricaldispersion=gd3bj scf=xqc

CID_116932878_JID_5218_neutraal

0 1
C          0.92053        0.01934        0.05754
C          0.39901       -0.73972       -1.16401
C          1.06222       -2.11670       -1.26832
C         -1.11800       -0.80320       -1.13912
C         -1.86067        0.10042       -1.91078
C         -3.25995        0.08306       -1.89683
C         -3.95959       -0.83829       -1.10535
C         -3.21214       -1.73512       -0.32576
C         -1.81377       -1.71774       -0.33886
C         -5.47702       -0.87413       -1.02211
C         -6.02026       -0.11434        0.20750
C         -5.67117        1.37316        0.36635
N         -6.34233        2.23850       -0.60829
C         -6.22725        3.64112       -0.21634
N         -6.14375       -0.51152       -2.27665
H          0.66343       -0.49314        0.99145
H          0.49549        1.02825        0.10466
H          2.01065        0.11756        0.01680
H          0.70335       -0.18110       -2.05949
H          0.91181       -2.71733       -0.36491
H          0.66527       -2.68113       -2.11917
H          2.14314       -2.00980       -1.41194
H         -1.35346        0.83284       -2.53608
H         -3.79198        0.79851       -2.51603
H         -3.71879       -2.46368        0.30498
H         -1.27964       -2.42651        0.28805
H         -5.74804       -1.92895       -0.87419
H         -7.11255       -0.22872        0.24484
H         -5.64791       -0.62481        1.10718
H         -5.99030        1.66127        1.37666
H         -4.58709        1.52552        0.32620
H         -5.88194        2.14100       -1.50953
H         -5.18029        3.96002       -0.18524
H         -6.74873        4.26549       -0.94851
H         -6.68880        3.82414        0.75937
H         -7.14945       -0.62297       -2.14734
H         -6.02362        0.47930       -2.45235

--Link1--
%chk=JID_5218.chk
%mem=8GB
%nprocshared=4
# B3LYP/6-311++G(d,p) empiricaldispersion=gd3bj scf=xqc pop=npa geom=check

CID_116932878_JID_5218_Energie_neutraal

0 1

--Link1--
%chk=JID_5218.chk
%mem=8GB
%nprocshared=4
# B3LYP/6-311++G(d,p) empiricaldispersion=gd3bj scf=xqc pop=npa geom=check

CID_116932878_JID_5218_Energie_kation

1 2

--Link1--
%chk=JID_5218.chk
%mem=8GB
%nprocshared=4
# B3LYP/6-311++G(d,p) empiricaldispersion=gd3bj scf=xqc pop=npa geom=check

CID_116932878_JID_5218_Energie_anion

-1 2
