%chk=JID_6386.chk
%mem=8GB
%nprocshared=4
# opt freq B3LYP/6-31G(d) empiricaldispersion=gd3bj scf=xqc

CID_131482212_JID_6386_neutraal

0 1
C          0.98463       -0.04263       -0.08914
C          0.70997       -0.13550        1.40003
O          1.17979        1.04551        2.06650
C          2.49113        1.04486        2.43009
O          3.26956        0.11866        2.23175
C          2.90388        2.35607        3.08248
C          1.99026        2.73011        4.25141
C          0.83885        3.60326        3.77922
O          1.30046        4.81099        3.17319
C          2.23169        4.62450        2.18691
C          3.02811        3.48132        2.08497
C          3.98735        3.41960        1.06427
C          4.13310        4.47795        0.16262
C          3.30623        5.59984        0.23820
C          2.39625        5.68647        1.29344
N          3.54826        6.70994       -0.58078
H          0.53817        0.86606       -0.50611
H          0.57526       -0.91037       -0.61391
H          2.05951        0.01120       -0.28848
H         -0.36996       -0.19021        1.57188
H          1.15098       -1.03957        1.83505
H          3.89931        2.17407        3.51276
H          2.57841        3.30576        4.97877
H          1.61307        1.84034        4.76785
H          0.16970        3.08498        3.08393
H          0.22964        3.89190        4.64284
H          4.64579        2.55701        0.97553
H          4.90789        4.42010       -0.59751
H          1.79845        6.58363        1.42754
H          3.95960        6.47442       -1.47830
H          2.74826        7.32829       -0.67419

--Link1--
%chk=JID_6386.chk
%mem=8GB
%nprocshared=4
# B3LYP/6-311++G(d,p) empiricaldispersion=gd3bj scf=xqc pop=npa geom=check

CID_131482212_JID_6386_Energie_neutraal

0 1

--Link1--
%chk=JID_6386.chk
%mem=8GB
%nprocshared=4
# B3LYP/6-311++G(d,p) empiricaldispersion=gd3bj scf=xqc pop=npa geom=check

CID_131482212_JID_6386_Energie_kation

1 2

--Link1--
%chk=JID_6386.chk
%mem=8GB
%nprocshared=4
# B3LYP/6-311++G(d,p) empiricaldispersion=gd3bj scf=xqc pop=npa geom=check

CID_131482212_JID_6386_Energie_anion

-1 2
