%chk=JID_2851.chk
%mem=8GB
%nprocshared=4
# opt freq B3LYP/6-31G(d) empiricaldispersion=gd3bj scf=xqc

CID_142935913_JID_2851_neutraal

0 1
C          0.97943       -0.05854        0.07842
C          0.36420       -0.39000        1.44727
O         -0.63903        0.61313        1.62540
C         -1.35532        0.62991        2.85849
C         -2.26771       -0.58831        3.05932
C         -1.38396       -1.74926        3.49459
N         -1.25851       -2.18358        4.71854
O         -2.03460       -1.45107        5.61998
C         -0.52153       -2.42349        2.43022
O         -0.20203       -1.68692        1.26939
N         -3.04131       -0.94821        1.85158
C          1.48849       -0.31710        2.48849
H          1.41389        0.94721        0.06639
H          0.21232       -0.08689       -0.70522
H          1.75048       -0.78534       -0.20026
H         -1.98400        1.52743        2.82321
H         -0.66516        0.77137        3.69712
H         -2.99079       -0.35990        3.84712
H         -1.91693       -1.94768        6.45243
H         -1.06922       -3.31464        2.10272
H          0.40359       -2.78714        2.89247
H         -3.61237       -0.14540        1.58603
H         -2.37108       -1.03572        1.07766
H          2.28094       -1.03888        2.26231
H          1.92054        0.68881        2.52879
H          1.13785       -0.54515        3.49902

--Link1--
%chk=JID_2851.chk
%mem=8GB
%nprocshared=4
# B3LYP/6-311++G(d,p) empiricaldispersion=gd3bj scf=xqc pop=npa geom=check

CID_142935913_JID_2851_Energie_neutraal

0 1

--Link1--
%chk=JID_2851.chk
%mem=8GB
%nprocshared=4
# B3LYP/6-311++G(d,p) empiricaldispersion=gd3bj scf=xqc pop=npa geom=check

CID_142935913_JID_2851_Energie_kation

1 2

--Link1--
%chk=JID_2851.chk
%mem=8GB
%nprocshared=4
# B3LYP/6-311++G(d,p) empiricaldispersion=gd3bj scf=xqc pop=npa geom=check

CID_142935913_JID_2851_Energie_anion

-1 2
