%chk=JID_3104.chk
%mem=8GB
%nprocshared=4
# opt freq B3LYP/6-31G(d) empiricaldispersion=gd3bj scf=xqc

CID_11073994_JID_3104_neutraal

0 1
C          2.54100        1.06400        0.00800
C          1.27282        0.26253       -0.03616
C          0.03065        0.90768        0.00641
C         -1.15701        0.17350       -0.07367
C         -1.08601       -1.21645       -0.22676
C          0.14510       -1.87735       -0.27277
C          1.32067       -1.13165       -0.19191
O          0.05184       -3.22832       -0.44874
C          1.18445       -4.04937       -0.17622
C          1.70614       -4.71617       -1.45649
C          2.17889       -3.72356       -2.51097
O          2.78376       -5.60057       -1.13851
C         -2.48474        0.87062       -0.06848
H          2.82441        1.37143       -1.00327
H          2.41604        1.95734        0.62893
H          3.35880        0.47948        0.44246
H         -0.01158        1.99157        0.09719
H         -2.00022       -1.80012       -0.31416
H          2.29442       -1.60128       -0.27027
H          1.98725       -3.55211        0.37866
H          0.84198       -4.84130        0.50224
H          0.90414       -5.32167       -1.89382
H          3.00072       -3.10747       -2.13109
H          2.56875       -4.25688       -3.38492
H          1.36888       -3.06796       -2.84290
H          3.55209       -5.06172       -0.88340
H         -2.45281        1.76458        0.56316
H         -2.75629        1.16530       -1.08684
H         -3.26840        0.21860        0.33138

--Link1--
%chk=JID_3104.chk
%mem=8GB
%nprocshared=4
# B3LYP/6-311++G(d,p) empiricaldispersion=gd3bj scf=xqc pop=npa geom=check

CID_11073994_JID_3104_Energie_neutraal

0 1

--Link1--
%chk=JID_3104.chk
%mem=8GB
%nprocshared=4
# B3LYP/6-311++G(d,p) empiricaldispersion=gd3bj scf=xqc pop=npa geom=check

CID_11073994_JID_3104_Energie_kation

1 2

--Link1--
%chk=JID_3104.chk
%mem=8GB
%nprocshared=4
# B3LYP/6-311++G(d,p) empiricaldispersion=gd3bj scf=xqc pop=npa geom=check

CID_11073994_JID_3104_Energie_anion

-1 2
