%chk=JID_10588.chk
%mem=8GB
%nprocshared=4
# opt freq B3LYP/6-31G(d) empiricaldispersion=gd3bj scf=xqc

CID_115413159_JID_10588_neutraal

0 1
C          0.99232       -0.06441       -0.07611
O          0.87349       -1.46971        0.10452
C          1.13622       -2.25742       -0.98315
C          1.46018       -1.80640       -2.26870
C          1.74656       -2.70741       -3.30995
C          1.64623       -4.08198       -3.03456
C          1.27405       -4.54157       -1.76336
C          1.03666       -3.62785       -0.73938
C          1.84945       -5.10150       -4.07073
O          0.91691       -5.39045       -4.81752
N          3.02503       -5.79931       -4.18135
C          4.42798       -5.54148       -3.73729
C          5.23909       -6.84345       -4.01588
C          5.43707       -7.15504       -5.50152
C          6.01831       -5.96741       -6.25754
C          5.19251       -4.70532       -6.04295
C          5.03987       -4.38048       -4.55648
C          4.54765       -5.26536       -2.20773
O          4.37832       -3.88913       -1.88845
N          1.89905       -2.19492       -4.61088
H          0.78589        0.41469        0.88582
H          0.25409        0.30371       -0.79611
H          2.00913        0.21230       -0.37407
H          1.48197       -0.74547       -2.49387
H          1.16363       -5.60657       -1.57792
H          0.75340       -3.98219        0.24857
H          2.93120       -6.43799       -4.96177
H          6.23678       -6.75694       -3.56449
H          4.75120       -7.70064       -3.53405
H          4.48650       -7.45219       -5.95838
H          6.10876       -8.01555       -5.60372
H          6.06830       -6.19976       -7.32727
H          7.04775       -5.79074       -5.92203
H          4.20510       -4.82520       -6.50444
H          5.67681       -3.86334       -6.55086
H          4.43599       -3.47308       -4.46056
H          6.03234       -4.13673       -4.15394
H          3.82369       -5.86485       -1.64555
H          5.54566       -5.53138       -1.84282
H          4.14310       -3.83327       -0.94587
H          2.28668       -2.85445       -5.28003
H          2.34110       -1.28336       -4.65408

--Link1--
%chk=JID_10588.chk
%mem=8GB
%nprocshared=4
# B3LYP/6-311++G(d,p) empiricaldispersion=gd3bj scf=xqc pop=npa geom=check

CID_115413159_JID_10588_Energie_neutraal

0 1

--Link1--
%chk=JID_10588.chk
%mem=8GB
%nprocshared=4
# B3LYP/6-311++G(d,p) empiricaldispersion=gd3bj scf=xqc pop=npa geom=check

CID_115413159_JID_10588_Energie_kation

1 2

--Link1--
%chk=JID_10588.chk
%mem=8GB
%nprocshared=4
# B3LYP/6-311++G(d,p) empiricaldispersion=gd3bj scf=xqc pop=npa geom=check

CID_115413159_JID_10588_Energie_anion

-1 2
