%chk=JID_2978.chk
%mem=8GB
%nprocshared=4
# opt freq B3LYP/6-31G(d) empiricaldispersion=gd3bj scf=xqc

CID_10997515_JID_2978_neutraal

0 1
C          0.94589       -0.06736       -0.05034
C          1.00043        0.83360       -1.28003
C          1.12377        0.08203       -2.63059
C         -0.11011       -0.80387       -2.86097
C          1.23188        1.13438       -3.74551
O          2.30067       -0.72951       -2.51767
C          2.79322       -1.35535       -3.69823
C          3.53187       -2.63643       -3.30204
C          4.81342       -2.32623       -2.53385
C          5.65496       -1.31337       -3.29915
C          4.81769       -0.10437       -3.69212
O          3.66331       -0.49474       -4.43527
H          0.05251       -0.69828       -0.05426
H          0.91259        0.54473        0.85705
H          1.82734       -0.71226        0.01614
H          0.11285        1.47842       -1.28621
H          1.87190        1.49076       -1.15943
H         -1.03864       -0.23950       -2.72385
H         -0.12597       -1.21552       -3.87568
H         -0.11559       -1.66366       -2.18263
H          2.14600        1.72830       -3.63659
H          1.26768        0.67167       -4.73743
H          0.37433        1.81605       -3.73362
H          1.96955       -1.63779       -4.36019
H          3.79711       -3.19263       -4.20961
H          2.88688       -3.27508       -2.68833
H          4.56380       -1.92372       -1.54448
H          5.38588       -3.24586       -2.37060
H          6.51658       -1.00254       -2.69928
H          6.03950       -1.79341       -4.20751
H          4.51649        0.47526       -2.81170
H          5.40930        0.56146       -4.32855

--Link1--
%chk=JID_2978.chk
%mem=8GB
%nprocshared=4
# B3LYP/6-311++G(d,p) empiricaldispersion=gd3bj scf=xqc pop=npa geom=check

CID_10997515_JID_2978_Energie_neutraal

0 1

--Link1--
%chk=JID_2978.chk
%mem=8GB
%nprocshared=4
# B3LYP/6-311++G(d,p) empiricaldispersion=gd3bj scf=xqc pop=npa geom=check

CID_10997515_JID_2978_Energie_kation

1 2

--Link1--
%chk=JID_2978.chk
%mem=8GB
%nprocshared=4
# B3LYP/6-311++G(d,p) empiricaldispersion=gd3bj scf=xqc pop=npa geom=check

CID_10997515_JID_2978_Energie_anion

-1 2
