%chk=JID_6229.chk
%mem=8GB
%nprocshared=4
# opt freq B3LYP/6-31G(d) empiricaldispersion=gd3bj scf=xqc

CID_146510880_JID_6229_neutraal

0 1
C          1.01514        0.07587       -0.06336
C          0.05586       -0.75760        0.77589
C          0.75465       -1.66215        1.76004
C          1.47670       -1.16016        2.85117
C          2.12547       -2.04719        3.73771
N          2.01101       -3.38695        3.60023
C          1.29792       -3.85376        2.55383
C          0.67083       -3.04840        1.61736
N          2.95216       -1.56855        4.75178
C          2.81314       -2.20003        6.06137
C          2.56620       -1.02738        7.01051
C          3.32749        0.11930        6.35804
C          3.09944       -0.10992        4.85226
C          1.81679        0.58068        4.35700
O          1.50566        0.21023        3.00773
C          4.32185        0.34150        4.04310
H          1.57355        0.79668        0.54078
H          0.45813        0.64033       -0.81830
H          1.74043       -0.56015       -0.58216
H         -0.63749       -0.10293        1.31730
H         -0.56398       -1.35813        0.09815
H          1.24721       -4.93651        2.48081
H          0.12201       -3.50234        0.79912
H          1.99609       -2.92661        6.13654
H          3.75136       -2.70584        6.31488
H          2.90780       -1.23614        8.02815
H          1.49565       -0.79447        7.05259
H          4.39108        0.03236        6.61381
H          2.98011        1.09902        6.70069
H          0.94826        0.34806        4.98704
H          1.93950        1.66965        4.37544
H          4.49065        1.41770        4.15670
H          5.22895       -0.17902        4.37210
H          4.20631        0.12967        2.97437

--Link1--
%chk=JID_6229.chk
%mem=8GB
%nprocshared=4
# B3LYP/6-311++G(d,p) empiricaldispersion=gd3bj scf=xqc pop=npa geom=check

CID_146510880_JID_6229_Energie_neutraal

0 1

--Link1--
%chk=JID_6229.chk
%mem=8GB
%nprocshared=4
# B3LYP/6-311++G(d,p) empiricaldispersion=gd3bj scf=xqc pop=npa geom=check

CID_146510880_JID_6229_Energie_kation

1 2

--Link1--
%chk=JID_6229.chk
%mem=8GB
%nprocshared=4
# B3LYP/6-311++G(d,p) empiricaldispersion=gd3bj scf=xqc pop=npa geom=check

CID_146510880_JID_6229_Energie_anion

-1 2
