%chk=JID_3578.chk
%mem=8GB
%nprocshared=4
# opt freq B3LYP/6-31G(d) empiricaldispersion=gd3bj scf=xqc

CID_142212331_JID_3578_neutraal

0 1
C          0.96870        0.06510        0.06915
N          0.30674       -0.94870       -0.73878
C         -0.91364       -0.47179       -1.38968
C         -0.72747        0.40448       -2.64254
C         -0.48704       -0.48781       -3.85612
O         -1.40644       -0.96094       -4.51365
N          0.81152       -0.92361       -4.26456
C          2.05226       -0.44518       -3.89522
C          3.21805       -1.14319       -4.12038
C          4.23823       -0.32833       -3.59568
N          3.76209        0.81479       -3.10160
N          2.44323        0.74540       -3.34036
O         -1.90223        1.20213       -2.84175
H          0.29957        0.45371        0.84350
H          1.33287        0.89829       -0.53800
H          1.83010       -0.38062        0.57628
H          0.96414       -1.40859       -1.36359
H         -1.50554       -1.35617       -1.65878
H         -1.53403        0.05970       -0.65593
H          0.07373        1.12371       -2.50963
H          0.78455       -1.69219       -4.92929
H          3.33101       -2.11786       -4.57343
H          5.30474       -0.51875       -3.55243
H          1.89900        1.57372       -3.13075
H         -2.64600        0.60362       -3.05436

--Link1--
%chk=JID_3578.chk
%mem=8GB
%nprocshared=4
# B3LYP/6-311++G(d,p) empiricaldispersion=gd3bj scf=xqc pop=npa geom=check

CID_142212331_JID_3578_Energie_neutraal

0 1

--Link1--
%chk=JID_3578.chk
%mem=8GB
%nprocshared=4
# B3LYP/6-311++G(d,p) empiricaldispersion=gd3bj scf=xqc pop=npa geom=check

CID_142212331_JID_3578_Energie_kation

1 2

--Link1--
%chk=JID_3578.chk
%mem=8GB
%nprocshared=4
# B3LYP/6-311++G(d,p) empiricaldispersion=gd3bj scf=xqc pop=npa geom=check

CID_142212331_JID_3578_Energie_anion

-1 2
