%chk=JID_10748.chk
%mem=8GB
%nprocshared=4
# opt freq B3LYP/6-31G(d) empiricaldispersion=gd3bj scf=xqc

CID_61329031_JID_10748_neutraal

0 1
C          2.49200        0.00400       -0.01400
C          0.99085        0.12906       -0.08035
C          0.12886       -0.98778        0.06654
C         -1.24974       -0.76981        0.00213
C         -1.77427        0.51122       -0.21733
C         -0.92612        1.60599       -0.36149
C          0.45320        1.41105       -0.31274
C         -1.52123        2.93417       -0.63908
O         -2.44995        3.02640       -1.43701
N         -1.04911        4.05614       -0.00557
C         -0.19762        4.13554        1.15854
N          0.72620       -2.25117        0.25801
C          0.28223       -3.53069        0.38618
O          1.14332       -4.40551        0.55275
C         -1.18813       -3.92991        0.34627
O         -1.95524       -3.52900        1.47188
C         -1.61724       -4.22399        2.66660
C         -2.09487       -5.66651        2.81824
O         -1.78335       -6.42579        3.72324
O         -2.95785       -6.06937        1.86485
H          2.79765       -0.41474        0.95032
H          2.85660       -0.63139       -0.82751
H          2.98451        0.97750       -0.11254
H         -1.97809       -1.55855        0.12131
H         -2.85282        0.64694       -0.27843
H          1.11843        2.25460       -0.48004
H         -1.53595        4.89788       -0.29182
H          0.83916        4.23541        0.82855
H         -0.47755        5.02732        1.72516
H         -0.31357        3.25208        1.79015
H          1.73748       -2.26026        0.30473
H         -1.63829       -3.52027       -0.56329
H         -1.24168       -5.01807        0.22161
H         -0.53373       -4.20141        2.82394
H         -2.08280       -3.66558        3.48580
H         -3.18485       -6.98782        2.11944

--Link1--
%chk=JID_10748.chk
%mem=8GB
%nprocshared=4
# B3LYP/6-311++G(d,p) empiricaldispersion=gd3bj scf=xqc pop=npa geom=check

CID_61329031_JID_10748_Energie_neutraal

0 1

--Link1--
%chk=JID_10748.chk
%mem=8GB
%nprocshared=4
# B3LYP/6-311++G(d,p) empiricaldispersion=gd3bj scf=xqc pop=npa geom=check

CID_61329031_JID_10748_Energie_kation

1 2

--Link1--
%chk=JID_10748.chk
%mem=8GB
%nprocshared=4
# B3LYP/6-311++G(d,p) empiricaldispersion=gd3bj scf=xqc pop=npa geom=check

CID_61329031_JID_10748_Energie_anion

-1 2
