%chk=JID_6970.chk
%mem=8GB
%nprocshared=4
# opt freq B3LYP/6-31G(d) empiricaldispersion=gd3bj scf=xqc

CID_136306913_JID_6970_neutraal

0 1
C          0.93188       -0.06622        0.03123
C          0.20315       -0.94768        1.04452
C          0.67417       -2.40013        0.99765
C         -0.10814       -3.01832       -0.15657
C         -1.45716       -2.29850       -0.13309
C         -1.29738       -1.05488        0.74746
C         -1.97469       -1.96646       -1.54390
O         -1.44214       -1.25457       -2.38044
N         -3.13963       -2.66418       -1.70748
C         -3.42045       -3.42122       -0.62772
N         -4.38934       -4.24635       -0.70017
C         -4.66689       -5.04890        0.50200
C         -3.74307       -6.26795        0.57809
O         -2.43963       -5.87105        1.03568
C         -1.54172       -6.97555        1.03614
N         -2.52891       -3.15962        0.37083
H          0.54812        0.95874        0.06886
H          0.81785       -0.42879       -0.99452
H          2.00306       -0.03101        0.25620
H          0.36583       -0.52398        2.04222
H          1.75566       -2.49785        0.86252
H          0.40560       -2.90570        1.93367
H          0.42275       -2.83672       -1.09862
H         -0.18766       -4.10401       -0.03631
H         -1.83448       -1.18387        1.69633
H         -1.68769       -0.14389        0.28031
H         -3.66995       -2.69931       -2.56049
H         -4.59839       -4.44136        1.41268
H         -5.70391       -5.39401        0.42563
H         -4.15442       -6.98673        1.29576
H         -3.66170       -6.74800       -0.40412
H         -1.90596       -7.76616        1.69903
H         -1.41243       -7.36257        0.02075
H         -0.57196       -6.62900        1.40289
H         -2.27044       -3.98035        0.92158

--Link1--
%chk=JID_6970.chk
%mem=8GB
%nprocshared=4
# B3LYP/6-311++G(d,p) empiricaldispersion=gd3bj scf=xqc pop=npa geom=check

CID_136306913_JID_6970_Energie_neutraal

0 1

--Link1--
%chk=JID_6970.chk
%mem=8GB
%nprocshared=4
# B3LYP/6-311++G(d,p) empiricaldispersion=gd3bj scf=xqc pop=npa geom=check

CID_136306913_JID_6970_Energie_kation

1 2

--Link1--
%chk=JID_6970.chk
%mem=8GB
%nprocshared=4
# B3LYP/6-311++G(d,p) empiricaldispersion=gd3bj scf=xqc pop=npa geom=check

CID_136306913_JID_6970_Energie_anion

-1 2
