%chk=JID_6620.chk
%mem=8GB
%nprocshared=4
# opt freq B3LYP/6-31G(d) empiricaldispersion=gd3bj scf=xqc

CID_59649199_JID_6620_neutraal

0 1
C          1.05606        0.06400        0.05254
C          0.26928       -0.53733        1.20770
C          0.63462        0.09468        2.55540
C          0.13385        1.54671        2.73220
O         -0.53725        1.20867        3.96804
C         -0.37369       -0.20240        3.68898
C          2.09829       -0.05592        2.98183
O          2.62440       -1.34851        2.67080
C          2.32202       -2.39874        3.58743
C          3.11256       -2.29165        4.89031
C          4.64364       -2.36427        4.70123
C          5.06413       -3.43741        5.72365
C          4.64452       -4.81692        5.18708
C          3.11948       -4.80609        5.36479
C          2.84659       -3.40344        5.93383
C          4.05814       -3.22293        6.85472
H          0.91281        1.14740       -0.00625
H          0.72650       -0.37369       -0.89513
H          2.12831       -0.12871        0.15329
H         -0.80006       -0.39854        1.00373
H          0.43590       -1.62036        1.23711
H          0.90237        2.31019        2.88671
H         -0.58426        1.90908        1.98888
H         -1.32527       -0.65284        3.38760
H          0.00857       -0.73149        4.56592
H          2.70970        0.65279        2.41084
H          2.25317        0.19817        4.03521
H          1.24628       -2.44456        3.77723
H          2.58318       -3.32299        3.06321
H          2.88639       -1.32893        5.36512
H          4.94527       -2.62557        3.68172
H          5.09538       -1.39736        4.95172
H          6.11648       -3.38081        6.00845
H          4.93640       -4.96830        4.14306
H          5.08758       -5.62068        5.78582
H          2.58783       -5.01822        4.43436
H          2.82683       -5.57446        6.09049
H          1.87587       -3.31349        6.42647
H          4.12193       -3.98324        7.64049
H          4.11844       -2.22614        7.30429

--Link1--
%chk=JID_6620.chk
%mem=8GB
%nprocshared=4
# B3LYP/6-311++G(d,p) empiricaldispersion=gd3bj scf=xqc pop=npa geom=check

CID_59649199_JID_6620_Energie_neutraal

0 1

--Link1--
%chk=JID_6620.chk
%mem=8GB
%nprocshared=4
# B3LYP/6-311++G(d,p) empiricaldispersion=gd3bj scf=xqc pop=npa geom=check

CID_59649199_JID_6620_Energie_kation

1 2

--Link1--
%chk=JID_6620.chk
%mem=8GB
%nprocshared=4
# B3LYP/6-311++G(d,p) empiricaldispersion=gd3bj scf=xqc pop=npa geom=check

CID_59649199_JID_6620_Energie_anion

-1 2
