%chk=JID_4713.chk
%mem=8GB
%nprocshared=4
# opt freq B3LYP/6-31G(d) empiricaldispersion=gd3bj scf=xqc

CID_140062592_JID_4713_neutraal

0 1
C          1.06564        0.04192       -0.06272
C          0.73532        1.36489       -0.73910
C          0.78120        1.27398       -2.26494
C         -0.33741        0.41163       -2.82937
N         -1.58499        0.71968       -2.65128
C          0.01641       -0.82234       -3.56631
C          0.90532       -0.83073       -4.65194
N          1.26045       -1.99692       -5.24093
C          0.69315       -3.14346       -4.79937
C         -0.22896       -3.20439       -3.77186
C         -0.57432       -2.01738       -3.14318
N          1.44949        0.37236       -5.13652
C          2.32860        0.27794       -6.29967
C          1.54018        0.17238       -7.59672
H          2.04404       -0.33024       -0.38285
H          0.31469       -0.72071       -0.28936
H          1.09190        0.17164        1.02393
H         -0.24787        1.70706       -0.39769
H          1.46421        2.11583       -0.41198
H          0.66823        2.27736       -2.69237
H          1.76208        0.89606       -2.56935
H         -1.67127        1.59573       -2.12417
H          1.00983       -4.04278       -5.32034
H         -0.66145       -4.14962       -3.46494
H         -1.28951       -2.01565       -2.32486
H          0.69558        1.04007       -5.28448
H          2.92154        1.19931       -6.33542
H          3.05139       -0.54116       -6.20583
H          0.85660        1.02065       -7.70934
H          2.22147        0.16942       -8.45335
H          0.94304       -0.74359       -7.63735

--Link1--
%chk=JID_4713.chk
%mem=8GB
%nprocshared=4
# B3LYP/6-311++G(d,p) empiricaldispersion=gd3bj scf=xqc pop=npa geom=check

CID_140062592_JID_4713_Energie_neutraal

0 1

--Link1--
%chk=JID_4713.chk
%mem=8GB
%nprocshared=4
# B3LYP/6-311++G(d,p) empiricaldispersion=gd3bj scf=xqc pop=npa geom=check

CID_140062592_JID_4713_Energie_kation

1 2

--Link1--
%chk=JID_4713.chk
%mem=8GB
%nprocshared=4
# B3LYP/6-311++G(d,p) empiricaldispersion=gd3bj scf=xqc pop=npa geom=check

CID_140062592_JID_4713_Energie_anion

-1 2
