%chk=JID_8951.chk
%mem=8GB
%nprocshared=4
# opt freq B3LYP/6-31G(d) empiricaldispersion=gd3bj scf=xqc

CID_149696920_JID_8951_neutraal

0 1
C          0.65300       -1.21900        0.25200
C         -0.51290       -1.63441       -0.67525
N         -1.50071       -0.55351       -0.81534
C         -0.90354        0.73486       -1.20278
C          0.25683        1.10947       -0.24783
N          1.29428        0.05718       -0.14446
C         -2.45718       -0.45625        0.19578
N         -2.48721       -1.41134        1.15485
C         -3.43022       -1.37639        2.13066
C         -4.38118       -0.37059        2.11798
C         -4.26685        0.54855        1.09275
N         -3.33043        0.56488        0.12781
N         -5.32485        1.42114        1.25938
C         -5.99321        0.98357        2.39114
N         -5.44842       -0.08805        2.92926
N         -5.58799        2.47153        0.42672
N         -6.63072        3.08010        0.70653
N         -7.59086        3.63862        0.96302
H          0.30469       -1.13085        1.28783
H          1.41537       -2.00581        0.24403
H         -0.96293       -2.57677       -0.34052
H         -0.10511       -1.84479       -1.67290
H         -0.50278        0.63129       -2.21964
H         -1.63111        1.55323       -1.25466
H         -0.13230        1.32550        0.75474
H          0.73328        2.02900       -0.60527
H          1.70209       -0.07298       -1.07060
H         -3.40243       -2.15934        2.87676
H         -6.87151        1.48383        2.77739

--Link1--
%chk=JID_8951.chk
%mem=8GB
%nprocshared=4
# B3LYP/6-311++G(d,p) empiricaldispersion=gd3bj scf=xqc pop=npa geom=check

CID_149696920_JID_8951_Energie_neutraal

0 1

--Link1--
%chk=JID_8951.chk
%mem=8GB
%nprocshared=4
# B3LYP/6-311++G(d,p) empiricaldispersion=gd3bj scf=xqc pop=npa geom=check

CID_149696920_JID_8951_Energie_kation

1 2

--Link1--
%chk=JID_8951.chk
%mem=8GB
%nprocshared=4
# B3LYP/6-311++G(d,p) empiricaldispersion=gd3bj scf=xqc pop=npa geom=check

CID_149696920_JID_8951_Energie_anion

-1 2
