%chk=JID_7013.chk
%mem=8GB
%nprocshared=4
# opt freq B3LYP/6-31G(d) empiricaldispersion=gd3bj scf=xqc

CID_134095665_JID_7013_neutraal

0 1
C          1.04826        0.06238        0.06148
N          0.35265        1.28204        0.50237
C          1.05208        2.47598        0.47069
C          0.45121        3.43535       -0.22429
C          1.31720        4.58587       -0.23213
O          1.08759        5.64298       -0.79453
C          2.57305        4.28487        0.55985
C          2.39560        2.81783        0.99434
C         -0.80593        2.91281       -0.72951
O         -1.61882        3.55420       -1.37064
N         -0.85703        1.57696       -0.24684
C         -2.03442        0.80031       -0.09325
C         -2.13323       -0.18432        0.90164
C         -3.29486       -0.94953        1.04861
C         -4.37950       -0.73915        0.20301
C         -4.30415        0.23948       -0.78337
C         -3.14185        1.00476       -0.92734
H          1.39718        0.16412       -0.97269
H          0.40560       -0.81994        0.11828
H          1.91531       -0.12688        0.70360
H          3.45563        4.40482       -0.07499
H          2.63416        4.95039        1.42593
H          3.17513        2.18622        0.55652
H          2.44083        2.72479        2.08390
H         -1.32145       -0.34711        1.60470
H         -3.35397       -1.70092        1.83177
H         -5.28474       -1.32970        0.31699
H         -5.14935        0.41379       -1.44470
H         -3.11953        1.75074       -1.71805

--Link1--
%chk=JID_7013.chk
%mem=8GB
%nprocshared=4
# B3LYP/6-311++G(d,p) empiricaldispersion=gd3bj scf=xqc pop=npa geom=check

CID_134095665_JID_7013_Energie_neutraal

0 1

--Link1--
%chk=JID_7013.chk
%mem=8GB
%nprocshared=4
# B3LYP/6-311++G(d,p) empiricaldispersion=gd3bj scf=xqc pop=npa geom=check

CID_134095665_JID_7013_Energie_kation

1 2

--Link1--
%chk=JID_7013.chk
%mem=8GB
%nprocshared=4
# B3LYP/6-311++G(d,p) empiricaldispersion=gd3bj scf=xqc pop=npa geom=check

CID_134095665_JID_7013_Energie_anion

-1 2
