%chk=JID_4169.chk
%mem=8GB
%nprocshared=4
# opt freq B3LYP/6-31G(d) empiricaldispersion=gd3bj scf=xqc

CID_11687095_JID_4169_neutraal

0 1
C          1.05931        0.06366        0.04929
C          0.38070       -1.15855       -0.58971
C          0.94751       -2.42805        0.05454
C         -1.13325       -1.03548       -0.38008
O          0.73055       -1.08504       -1.99622
C          0.25351       -1.99688       -2.87455
O         -0.45644       -2.95500       -2.60501
N          0.64007       -1.74874       -4.15887
C          1.57324       -0.72950       -4.60356
C          2.98088       -1.27847       -4.77136
C          3.13268       -1.92315       -6.12260
O          3.69957       -1.39648       -7.07052
O          2.53219       -3.14445       -6.14680
C          2.61638       -3.81014       -7.40841
H          0.86783        0.11955        1.12603
H          0.70586        0.99199       -0.41458
H          2.14379        0.03334       -0.10847
H          0.82008       -2.41392        1.14237
H          0.45724       -3.33098       -0.32168
H          2.01484       -2.53437       -0.16988
H         -1.53347       -0.17774       -0.93227
H         -1.67030       -1.91861       -0.73870
H         -1.37994       -0.91342        0.68016
H          0.32869       -2.45284       -4.81669
H          1.18380       -0.33294       -5.54750
H          1.58491        0.09002       -3.87811
H          3.70573       -0.45682       -4.72809
H          3.25866       -1.99174       -3.98780
H          2.10396       -3.22896       -8.18158
H          3.66151       -3.98486       -7.68224
H          2.11592       -4.77788       -7.31483

--Link1--
%chk=JID_4169.chk
%mem=8GB
%nprocshared=4
# B3LYP/6-311++G(d,p) empiricaldispersion=gd3bj scf=xqc pop=npa geom=check

CID_11687095_JID_4169_Energie_neutraal

0 1

--Link1--
%chk=JID_4169.chk
%mem=8GB
%nprocshared=4
# B3LYP/6-311++G(d,p) empiricaldispersion=gd3bj scf=xqc pop=npa geom=check

CID_11687095_JID_4169_Energie_kation

1 2

--Link1--
%chk=JID_4169.chk
%mem=8GB
%nprocshared=4
# B3LYP/6-311++G(d,p) empiricaldispersion=gd3bj scf=xqc pop=npa geom=check

CID_11687095_JID_4169_Energie_anion

-1 2
