%chk=JID_6238.chk
%mem=8GB
%nprocshared=4
# opt freq B3LYP/6-31G(d) empiricaldispersion=gd3bj scf=xqc

CID_83360220_JID_6238_neutraal

0 1
C          0.98373       -0.04498        0.08782
C          0.59472        1.10990        0.97020
C         -0.62938        1.65956        0.85773
C         -1.24272        2.78146        1.67512
C         -2.49055        3.31736        0.98242
C         -3.76915        2.84524        1.34393
C         -3.93670        1.98529        2.57323
C         -2.62734        1.38252        3.08799
N         -1.52349        2.34221        3.05121
C         -4.88112        3.25046        0.59439
C         -4.74982        4.16099       -0.45455
C         -3.49065        4.64753       -0.79545
C         -2.36540        4.21759       -0.09172
O         -6.12873        2.78396        0.92095
C         -6.49122        1.72129        0.03628
C          1.64652        1.54024        1.95330
H          0.19880       -0.30979       -0.62842
H          1.19200       -0.93133        0.69605
H          1.88336        0.20193       -0.48552
H         -1.29729        1.24529        0.10058
H         -0.52573        3.60980        1.74049
H         -4.63475        1.16490        2.37169
H         -4.37430        2.61256        3.36015
H         -2.37565        0.48261        2.51314
H         -2.77357        1.04826        4.12151
H         -0.68496        1.90570        3.42540
H         -5.62791        4.49597       -0.99844
H         -3.38447        5.35610       -1.61238
H         -1.38382        4.58585       -0.38318
H         -6.65790        2.09381       -0.98008
H         -5.73465        0.92765        0.02982
H         -7.42896        1.28888        0.39736
H          1.80067        0.75711        2.70299
H          2.59710        1.71754        1.43969
H          1.38805        2.46333        2.47856

--Link1--
%chk=JID_6238.chk
%mem=8GB
%nprocshared=4
# B3LYP/6-311++G(d,p) empiricaldispersion=gd3bj scf=xqc pop=npa geom=check

CID_83360220_JID_6238_Energie_neutraal

0 1

--Link1--
%chk=JID_6238.chk
%mem=8GB
%nprocshared=4
# B3LYP/6-311++G(d,p) empiricaldispersion=gd3bj scf=xqc pop=npa geom=check

CID_83360220_JID_6238_Energie_kation

1 2

--Link1--
%chk=JID_6238.chk
%mem=8GB
%nprocshared=4
# B3LYP/6-311++G(d,p) empiricaldispersion=gd3bj scf=xqc pop=npa geom=check

CID_83360220_JID_6238_Energie_anion

-1 2
