%chk=JID_10895.chk
%mem=8GB
%nprocshared=4
# opt freq B3LYP/6-31G(d) empiricaldispersion=gd3bj scf=xqc

CID_63639118_JID_10895_neutraal

0 1
C          0.96406        0.05970        0.07172
C          2.41426        0.07338       -0.39341
C          2.53125       -0.13092       -1.87240
N          1.63854       -0.75103       -2.61415
C          2.00988       -0.71468       -3.95008
C          3.22775       -0.10689       -4.19040
S          3.90723        0.45418       -2.72142
C          1.07118       -1.27378       -4.97425
O          0.41556       -0.20189       -5.66466
C         -0.84508       -0.51179       -6.10810
C         -1.87560        0.41675       -5.86976
C         -3.15891        0.12249       -6.36282
C         -3.40592       -1.05304       -7.07639
C         -2.37624       -1.96669       -7.31536
C         -1.08944       -1.67679       -6.84700
C         -2.63161       -3.20251       -8.12571
C         -1.67428        1.69808       -5.06210
C         -1.49289        1.35792       -3.57593
N         -0.59257        2.51175       -5.63790
C         -0.33598        3.74803       -4.92049
H          0.37703        0.83264       -0.43627
H          0.91122        0.24507        1.14928
H          0.49171       -0.90855       -0.12638
H          2.86303        1.03191       -0.10640
H          2.96994       -0.71751        0.12320
H          3.72456        0.04934       -5.13709
H          1.63709       -1.87081       -5.69903
H          0.34831       -1.92751       -4.46792
H         -3.98108        0.81509       -6.19513
H         -4.40926       -1.24476       -7.45037
H         -0.27572       -2.35820       -7.07789
H         -2.49014       -2.98883       -9.18951
H         -1.95147       -4.00935       -7.83298
H         -3.65243       -3.56689       -7.96935
H         -2.59412        2.29197       -5.14699
H         -0.52880        0.88228       -3.37711
H         -1.55542        2.25551       -2.95173
H         -2.27606        0.67225       -3.23211
H          0.25331        1.93681       -5.64410
H          0.09243        3.56706       -3.92993
H          0.38831        4.34619       -5.48243
H         -1.24564        4.34796       -4.81721

--Link1--
%chk=JID_10895.chk
%mem=8GB
%nprocshared=4
# B3LYP/6-311++G(d,p) empiricaldispersion=gd3bj scf=xqc pop=npa geom=check

CID_63639118_JID_10895_Energie_neutraal

0 1

--Link1--
%chk=JID_10895.chk
%mem=8GB
%nprocshared=4
# B3LYP/6-311++G(d,p) empiricaldispersion=gd3bj scf=xqc pop=npa geom=check

CID_63639118_JID_10895_Energie_kation

1 2

--Link1--
%chk=JID_10895.chk
%mem=8GB
%nprocshared=4
# B3LYP/6-311++G(d,p) empiricaldispersion=gd3bj scf=xqc pop=npa geom=check

CID_63639118_JID_10895_Energie_anion

-1 2
