%chk=JID_3112.chk
%mem=8GB
%nprocshared=4
# opt freq B3LYP/6-31G(d) empiricaldispersion=gd3bj scf=xqc

CID_112515108_JID_3112_neutraal

0 1
C          0.93651       -0.06233        0.04565
C          1.03786        0.53313       -1.34812
C          1.29871       -0.52530       -2.42151
C          0.10485       -1.44974       -2.74642
C         -1.13722       -0.72550       -3.31233
C         -0.90526        0.13196       -4.56531
C         -0.87660       -0.69146       -5.83758
O         -1.71445       -1.56913       -6.04546
N          0.04651       -0.42570       -6.80057
C          1.19093        0.46473       -6.78208
C          2.45533       -0.26341       -6.36354
C          0.56117       -2.53219       -3.64513
N          0.96580       -3.37411       -4.33224
H          0.07471       -0.72974        0.13628
H          0.81917        0.73443        0.78725
H          1.83940       -0.62709        0.29893
H          0.13747        1.11294       -1.57434
H          1.87270        1.24443       -1.35482
H          1.63509       -0.01311       -3.32881
H          2.15537       -1.13671       -2.10575
H         -0.21115       -1.93549       -1.81419
H         -1.92497       -1.46546       -3.50695
H         -1.53922       -0.07036       -2.52949
H         -1.75596        0.81663       -4.67982
H         -0.02664        0.76193       -4.44542
H         -0.02586       -1.06854       -7.58219
H          1.30994        0.84955       -7.79995
H          1.00310        1.31811       -6.12710
H          2.68609       -1.07488       -7.06191
H          3.30598        0.42467       -6.34608
H          2.35327       -0.70690       -5.37046

--Link1--
%chk=JID_3112.chk
%mem=8GB
%nprocshared=4
# B3LYP/6-311++G(d,p) empiricaldispersion=gd3bj scf=xqc pop=npa geom=check

CID_112515108_JID_3112_Energie_neutraal

0 1

--Link1--
%chk=JID_3112.chk
%mem=8GB
%nprocshared=4
# B3LYP/6-311++G(d,p) empiricaldispersion=gd3bj scf=xqc pop=npa geom=check

CID_112515108_JID_3112_Energie_kation

1 2

--Link1--
%chk=JID_3112.chk
%mem=8GB
%nprocshared=4
# B3LYP/6-311++G(d,p) empiricaldispersion=gd3bj scf=xqc pop=npa geom=check

CID_112515108_JID_3112_Energie_anion

-1 2
