%chk=JID_5886.chk
%mem=8GB
%nprocshared=4
# opt freq B3LYP/6-31G(d) empiricaldispersion=gd3bj scf=xqc

CID_115199071_JID_5886_neutraal

0 1
C          1.02186       -0.09119       -0.03473
C          1.30581       -1.03734        1.12956
C          2.02526       -0.34394        2.30336
C          1.30264        0.85615        2.92988
N          0.05919        0.42567        3.55694
C         -0.83583        1.38787        4.04107
C         -2.17318        1.00520        4.24428
C         -3.06827        1.91374        4.78570
C         -2.65272        3.17604        5.16675
C         -1.34195        3.57420        5.03653
C         -0.43199        2.66651        4.47920
O         -3.64864        3.94506        5.70903
C         -4.85341        3.20584        5.39713
C         -4.49321        1.74154        5.14056
N          0.05296       -1.67117        1.55742
H          0.27842        0.66998        0.22488
H          0.63750       -0.64447       -0.89921
H          1.93722        0.42061       -0.35021
H          1.96846       -1.83106        0.76257
H          2.22836       -1.08799        3.08552
H          3.00550        0.00032        1.94871
H          1.96668        1.28852        3.68754
H          1.11457        1.62360        2.17076
H         -0.41688       -0.26414        2.96113
H         -2.50279        0.00386        3.98526
H         -1.02297        4.55601        5.36600
H          0.60611        2.97414        4.40212
H         -5.56386        3.30640        6.22427
H         -5.30451        3.66333        4.50714
H         -5.10014        1.30596        4.34295
H         -4.58773        1.14592        6.05418
H         -0.35315       -2.18142        0.77199
H          0.26238       -2.37475        2.26863

--Link1--
%chk=JID_5886.chk
%mem=8GB
%nprocshared=4
# B3LYP/6-311++G(d,p) empiricaldispersion=gd3bj scf=xqc pop=npa geom=check

CID_115199071_JID_5886_Energie_neutraal

0 1

--Link1--
%chk=JID_5886.chk
%mem=8GB
%nprocshared=4
# B3LYP/6-311++G(d,p) empiricaldispersion=gd3bj scf=xqc pop=npa geom=check

CID_115199071_JID_5886_Energie_kation

1 2

--Link1--
%chk=JID_5886.chk
%mem=8GB
%nprocshared=4
# B3LYP/6-311++G(d,p) empiricaldispersion=gd3bj scf=xqc pop=npa geom=check

CID_115199071_JID_5886_Energie_anion

-1 2
