%chk=JID_6438.chk
%mem=8GB
%nprocshared=4
# opt freq B3LYP/6-31G(d) empiricaldispersion=gd3bj scf=xqc

CID_115889421_JID_6438_neutraal

0 1
C          0.90892        0.04106       -0.00439
C          0.75297       -1.24414       -0.82352
C          1.68690       -2.30342       -0.20030
C         -0.69231       -1.75359       -0.71681
N          1.13072       -1.12719       -2.24911
C          0.73197       -0.27790       -3.23463
O          0.67978       -0.73543       -4.38136
C          0.48912        1.19156       -2.99349
C         -0.91922        1.61690       -3.39591
N         -1.88499        1.35245       -2.32129
C         -2.52375        2.56720       -1.78776
C         -1.53484        3.45521       -1.01433
C         -2.26239        4.62088       -0.34824
C         -3.43281        4.12195        0.48702
O         -4.32614        3.34877       -0.31249
C         -3.69007        2.18641       -0.85046
H          0.85850       -0.16817        1.07107
H          0.10482        0.75206       -0.20592
H          1.87050        0.52709       -0.20150
H          1.44888       -2.48011        0.85475
H          1.60629       -3.26360       -0.72363
H          2.73473       -1.98660       -0.26225
H         -1.40071       -1.05010       -1.16152
H         -0.81431       -2.70789       -1.24252
H         -0.98462       -1.90651        0.32812
H          1.28771       -2.02957       -2.68537
H          0.75560        1.52427       -1.99490
H          1.20239        1.70928       -3.65022
H         -0.90980        2.67691       -3.67647
H         -1.24156        1.07741       -4.29477
H         -2.61387        0.74268       -2.69893
H         -2.94780        3.15467       -2.61353
H         -1.02778        2.86623       -0.23983
H         -0.75607        3.85072       -1.67576
H         -1.56826        5.19376        0.27555
H         -2.63759        5.29208       -1.13050
H         -3.08975        3.52098        1.33744
H         -3.99418        4.97184        0.88780
H         -4.45199        1.62845       -1.40620
H         -3.35238        1.54560       -0.02576

--Link1--
%chk=JID_6438.chk
%mem=8GB
%nprocshared=4
# B3LYP/6-311++G(d,p) empiricaldispersion=gd3bj scf=xqc pop=npa geom=check

CID_115889421_JID_6438_Energie_neutraal

0 1

--Link1--
%chk=JID_6438.chk
%mem=8GB
%nprocshared=4
# B3LYP/6-311++G(d,p) empiricaldispersion=gd3bj scf=xqc pop=npa geom=check

CID_115889421_JID_6438_Energie_kation

1 2

--Link1--
%chk=JID_6438.chk
%mem=8GB
%nprocshared=4
# B3LYP/6-311++G(d,p) empiricaldispersion=gd3bj scf=xqc pop=npa geom=check

CID_115889421_JID_6438_Energie_anion

-1 2
