%chk=JID_5698.chk
%mem=8GB
%nprocshared=4
# opt freq B3LYP/6-31G(d) empiricaldispersion=gd3bj scf=xqc

CID_60666911_JID_5698_neutraal

0 1
C          0.94422       -0.01148       -0.08220
C          0.68522        1.32544        0.60392
C          1.48153        2.45157       -0.07894
O          0.98002        3.50916       -0.45141
O          2.80842        2.15274       -0.15286
C          3.60046        3.17160       -0.76562
N         -0.77221        1.63527        0.52153
C         -1.44287        1.46576        1.75192
C         -1.97322        0.19401        2.02606
C         -2.56999       -0.09579        3.25193
C         -2.61976        0.87890        4.23898
C         -2.08176        2.14174        3.99190
C         -1.50328        2.46392        2.74619
C         -0.90139        3.83732        2.55835
O         -1.63293        4.83702        3.26461
H          0.66209        0.02703       -1.14060
H          0.37193       -0.81785        0.38676
H          2.00296       -0.28655       -0.03257
H          1.02611        1.29089        1.64694
H          3.27513        3.34107       -1.79697
H          3.54980        4.09799       -0.18503
H          4.63884        2.82943       -0.78241
H         -0.88348        2.59122        0.17214
H         -1.93058       -0.57957        1.26267
H         -2.98419       -1.08332        3.43468
H         -3.06886        0.65750        5.20354
H         -2.10741        2.88430        4.78859
H          0.13109        3.84152        2.92153
H         -0.90484        4.14248        1.50984
H         -2.56974        4.69874        3.04047

--Link1--
%chk=JID_5698.chk
%mem=8GB
%nprocshared=4
# B3LYP/6-311++G(d,p) empiricaldispersion=gd3bj scf=xqc pop=npa geom=check

CID_60666911_JID_5698_Energie_neutraal

0 1

--Link1--
%chk=JID_5698.chk
%mem=8GB
%nprocshared=4
# B3LYP/6-311++G(d,p) empiricaldispersion=gd3bj scf=xqc pop=npa geom=check

CID_60666911_JID_5698_Energie_kation

1 2

--Link1--
%chk=JID_5698.chk
%mem=8GB
%nprocshared=4
# B3LYP/6-311++G(d,p) empiricaldispersion=gd3bj scf=xqc pop=npa geom=check

CID_60666911_JID_5698_Energie_anion

-1 2
