%chk=JID_9896.chk
%mem=8GB
%nprocshared=4
# opt freq B3LYP/6-31G(d) empiricaldispersion=gd3bj scf=xqc

CID_62988266_JID_9896_neutraal

0 1
C          0.96726        0.07021       -0.06323
C          0.75469       -1.15432       -0.96524
C          0.98197       -2.41058       -0.08327
O          0.04482       -3.13949        0.27389
N          2.20525       -2.76697        0.40859
C          3.52808       -2.31047        0.28026
C          3.99828       -1.38777       -0.64870
C          5.34882       -1.00351       -0.65607
C          6.26662       -1.56618        0.22913
C          5.79209       -2.45750        1.18647
C          4.44767       -2.84778        1.19261
N          7.57138       -1.07203        0.30510
N         -0.60750       -1.18851       -1.60358
C         -1.03113        0.11101       -2.14257
C         -2.42352        0.15390       -2.78694
C         -2.47875       -0.57326       -4.12200
O         -2.70485       -1.97327       -4.05159
C         -2.12599       -2.66346       -2.94800
C         -0.67973       -2.26654       -2.61886
H          0.13318        0.18907        0.63870
H          1.06048        0.98873       -0.65189
H          1.87044       -0.00579        0.54810
H          1.47865       -1.15387       -1.78112
H          2.07673       -3.54523        1.04741
H          3.37171       -0.92921       -1.39697
H          5.67557       -0.25249       -1.37152
H          6.46138       -2.85758        1.94352
H          4.12600       -3.55602        1.95338
H          7.92207       -0.69226       -0.56861
H          8.23114       -1.71131        0.73740
H         -1.08042        0.83633       -1.32264
H         -0.28742        0.48686       -2.85739
H         -2.66292        1.20986       -2.96636
H         -3.17914       -0.22983       -2.09181
H         -1.57156       -0.39355       -4.71017
H         -3.30807       -0.16520       -4.71067
H         -2.14340       -3.72530       -3.21940
H         -2.78249       -2.56836       -2.07471
H         -0.12645       -1.98638       -3.52380
H         -0.20209       -3.17173       -2.22919

--Link1--
%chk=JID_9896.chk
%mem=8GB
%nprocshared=4
# B3LYP/6-311++G(d,p) empiricaldispersion=gd3bj scf=xqc pop=npa geom=check

CID_62988266_JID_9896_Energie_neutraal

0 1

--Link1--
%chk=JID_9896.chk
%mem=8GB
%nprocshared=4
# B3LYP/6-311++G(d,p) empiricaldispersion=gd3bj scf=xqc pop=npa geom=check

CID_62988266_JID_9896_Energie_kation

1 2

--Link1--
%chk=JID_9896.chk
%mem=8GB
%nprocshared=4
# B3LYP/6-311++G(d,p) empiricaldispersion=gd3bj scf=xqc pop=npa geom=check

CID_62988266_JID_9896_Energie_anion

-1 2
