%chk=JID_3324.chk
%mem=8GB
%nprocshared=4
# opt freq B3LYP/6-31G(d) empiricaldispersion=gd3bj scf=xqc

CID_129932749_JID_3324_neutraal

0 1
C          0.99170       -0.09245       -0.03721
O          0.05279       -0.50959       -1.02177
C          0.45765       -0.40992       -2.32232
C          1.62582       -0.00768       -2.83387
C          1.59301       -0.12593       -4.31357
N          0.38258       -0.90860       -4.62614
C         -0.48841       -0.82931       -3.41566
C         -1.68026        0.07134       -3.67307
C         -1.98342        1.19208       -2.90352
N         -3.05570        1.99904       -3.10379
C         -3.87533        1.67617       -4.12463
C         -3.67731        0.58586       -4.95187
C         -2.56853       -0.22323       -4.71878
H          0.52912       -0.22101        0.94580
H          1.24102        0.96696       -0.15831
H          1.89464       -0.71104       -0.07025
H          2.48196        0.35571       -2.28851
H          2.48184       -0.64072       -4.69146
H          1.53808        0.86366       -4.77873
H          0.66529       -1.88298       -4.71755
H         -0.86781       -1.83470       -3.18973
H         -1.36047        1.49951       -2.06854
H         -4.72376        2.33910       -4.26498
H         -4.36600        0.37080       -5.76045
H         -2.38821       -1.08258       -5.36055

--Link1--
%chk=JID_3324.chk
%mem=8GB
%nprocshared=4
# B3LYP/6-311++G(d,p) empiricaldispersion=gd3bj scf=xqc pop=npa geom=check

CID_129932749_JID_3324_Energie_neutraal

0 1

--Link1--
%chk=JID_3324.chk
%mem=8GB
%nprocshared=4
# B3LYP/6-311++G(d,p) empiricaldispersion=gd3bj scf=xqc pop=npa geom=check

CID_129932749_JID_3324_Energie_kation

1 2

--Link1--
%chk=JID_3324.chk
%mem=8GB
%nprocshared=4
# B3LYP/6-311++G(d,p) empiricaldispersion=gd3bj scf=xqc pop=npa geom=check

CID_129932749_JID_3324_Energie_anion

-1 2
