%chk=JID_2899.chk
%mem=8GB
%nprocshared=4
# opt freq B3LYP/6-31G(d) empiricaldispersion=gd3bj scf=xqc

CID_79630230_JID_2899_neutraal

0 1
C          1.05036       -0.07459       -0.04359
C          0.22760        0.38787       -1.25630
C          0.45427       -0.62584       -2.39515
C         -1.28493        0.45748       -0.94732
S         -1.81283        1.62992        0.35938
C         -1.77774        0.57382        1.85387
C         -2.80650       -0.55939        1.84740
C         -2.19107       -1.96182        1.83060
N         -1.44781       -2.25946        3.04942
C          0.74496        1.73937       -1.73222
O          1.71708        2.34070       -1.30360
O          0.05007        2.24777       -2.76931
H          0.65948       -1.00948        0.37107
H          1.06970        0.67899        0.75027
H          2.09619       -0.25171       -0.32321
H          0.16259       -1.63674       -2.08888
H         -0.12833       -0.36725       -3.28686
H          1.50806       -0.65486       -2.69655
H         -1.82540        0.77344       -1.84801
H         -1.67261       -0.53812       -0.71430
H         -0.75946        0.22201        2.02545
H         -2.01118        1.24622        2.68728
H         -3.42610       -0.47069        2.75022
H         -3.50119       -0.46834        1.00374
H         -2.99986       -2.69485        1.73637
H         -1.53716       -2.09184        0.96316
H         -1.14161       -3.23244        3.03008
H         -0.59578       -1.70293        3.09728
H          0.48757        3.10802       -2.94397

--Link1--
%chk=JID_2899.chk
%mem=8GB
%nprocshared=4
# B3LYP/6-311++G(d,p) empiricaldispersion=gd3bj scf=xqc pop=npa geom=check

CID_79630230_JID_2899_Energie_neutraal

0 1

--Link1--
%chk=JID_2899.chk
%mem=8GB
%nprocshared=4
# B3LYP/6-311++G(d,p) empiricaldispersion=gd3bj scf=xqc pop=npa geom=check

CID_79630230_JID_2899_Energie_kation

1 2

--Link1--
%chk=JID_2899.chk
%mem=8GB
%nprocshared=4
# B3LYP/6-311++G(d,p) empiricaldispersion=gd3bj scf=xqc pop=npa geom=check

CID_79630230_JID_2899_Energie_anion

-1 2
