%chk=JID_10782.chk
%mem=8GB
%nprocshared=4
# opt freq B3LYP/6-31G(d) empiricaldispersion=gd3bj scf=xqc

CID_138678725_JID_10782_neutraal

0 1
C          0.91771       -0.05355        0.01900
C          0.18120        0.41121        1.30669
C          0.33034        1.95801        1.27548
C         -1.31626        0.10651        1.07078
C          0.77025       -0.31478        2.67333
C          1.44088       -1.67954        2.30981
C          0.43339       -2.74282        1.97903
O          0.59110       -3.49537        1.01632
C         -0.73990       -2.90705        2.89792
C         -0.64527       -1.96954        4.09486
N         -0.30954       -0.58081        3.72320
C         -1.05463        0.37998        4.38975
O         -1.95587        0.18392        5.19205
O         -0.74320        1.64933        4.10995
C          0.28540       -2.50694        5.17281
C          0.50961       -1.78907        6.48408
C         -0.30006       -3.05120        6.45693
C          1.83945        0.60020        3.33664
C          2.81346        0.13515        4.39857
C          3.32219        0.53360        3.03942
H          0.56903        0.50260       -0.86063
H          0.73924       -1.10771       -0.20894
H          1.99679        0.11999        0.09351
H         -0.05664        2.36925        0.33393
H         -0.22500        2.46316        2.06384
H          1.38015        2.26570        1.33175
H         -1.50038       -0.96300        0.95762
H         -1.95063        0.48915        1.87417
H         -1.67086        0.58069        0.14683
H          2.03597       -2.08169        3.13273
H          2.15574       -1.59507        1.48703
H         -1.64397       -2.68854        2.32096
H         -0.78526       -3.95164        3.22490
H         -1.65353       -1.97406        4.52801
H         -1.36959        2.14905        4.67225
H          1.12590       -3.06407        4.77554
H          1.50188       -1.83058        6.91961
H         -0.01443       -0.86311        6.68686
H         -1.36623       -2.96022        6.63578
H          0.14131       -3.94675        6.87969
H          1.45700        1.59967        3.51617
H          3.00174        0.80837        5.22948
H          2.86870       -0.90640        4.68257
H          3.72700       -0.24215        2.40302
H          3.85803        1.47441        2.95738

--Link1--
%chk=JID_10782.chk
%mem=8GB
%nprocshared=4
# B3LYP/6-311++G(d,p) empiricaldispersion=gd3bj scf=xqc pop=npa geom=check

CID_138678725_JID_10782_Energie_neutraal

0 1

--Link1--
%chk=JID_10782.chk
%mem=8GB
%nprocshared=4
# B3LYP/6-311++G(d,p) empiricaldispersion=gd3bj scf=xqc pop=npa geom=check

CID_138678725_JID_10782_Energie_kation

1 2

--Link1--
%chk=JID_10782.chk
%mem=8GB
%nprocshared=4
# B3LYP/6-311++G(d,p) empiricaldispersion=gd3bj scf=xqc pop=npa geom=check

CID_138678725_JID_10782_Energie_anion

-1 2
