%chk=JID_10401.chk
%mem=8GB
%nprocshared=4
# opt freq B3LYP/6-31G(d) empiricaldispersion=gd3bj scf=xqc

CID_17400942_JID_10401_neutraal

0 1
C         -0.02900        0.88300        0.00000
C          0.23404        0.03183        1.19538
C          1.39927        0.54123        0.37309
C          2.15671       -0.43279       -0.51217
N          1.62158       -1.48197       -1.10224
N          2.62832       -2.07572       -1.83437
C          3.70665       -1.34558       -1.64950
O          3.48449       -0.28654       -0.81184
S          5.21566       -1.62690       -2.45776
C          5.71015        0.08562       -2.83548
C          4.74320        0.85973       -3.75267
C          4.53674        0.25773       -5.14293
O          5.75911        0.22802       -5.88410
C          6.37594        1.45156       -5.84800
C          7.33475        1.70093       -6.82728
C          7.99238        2.93133       -6.85688
C          7.69495        3.90611       -5.90292
C          6.74594        3.64879       -4.91185
C          6.09456        2.41734       -4.87728
O          5.19683        2.22579       -3.85888
H         -0.36373        1.90115        0.16258
H         -0.47076        0.40987       -0.87086
H          0.07940        0.46641        2.17627
H         -0.02661       -1.01995        1.13621
H          2.00428        1.33707        0.79127
H          5.83886        0.63341       -1.89398
H          6.70996        0.04429       -3.28147
H          3.76327        0.92506       -3.26686
H          4.15266       -0.76519       -5.08649
H          3.80362        0.84425       -5.71304
H          7.55973        0.94311       -7.57253
H          8.73405        3.13088       -7.62621
H          8.20590        4.86531       -5.92884
H          6.52201        4.40423       -4.16395

--Link1--
%chk=JID_10401.chk
%mem=8GB
%nprocshared=4
# B3LYP/6-311++G(d,p) empiricaldispersion=gd3bj scf=xqc pop=npa geom=check

CID_17400942_JID_10401_Energie_neutraal

0 1

--Link1--
%chk=JID_10401.chk
%mem=8GB
%nprocshared=4
# B3LYP/6-311++G(d,p) empiricaldispersion=gd3bj scf=xqc pop=npa geom=check

CID_17400942_JID_10401_Energie_kation

1 2

--Link1--
%chk=JID_10401.chk
%mem=8GB
%nprocshared=4
# B3LYP/6-311++G(d,p) empiricaldispersion=gd3bj scf=xqc pop=npa geom=check

CID_17400942_JID_10401_Energie_anion

-1 2
