%chk=JID_5140.chk
%mem=8GB
%nprocshared=4
# opt freq B3LYP/6-31G(d) empiricaldispersion=gd3bj scf=xqc

CID_11735927_JID_5140_neutraal

0 1
C          1.06328       -0.06206        0.04630
C          0.13729       -1.25406       -0.18044
C          0.37973       -2.37364        0.83263
O         -1.23812       -0.85239       -0.32605
C         -1.92816       -0.63651        0.83160
C         -2.83392       -1.60670        1.25326
C         -3.59904       -1.39578        2.40193
C         -3.47985       -0.20039        3.12860
C         -2.59109        0.78308        2.66667
C         -1.82931        0.57076        1.51474
C         -4.31248        0.05098        4.37372
C         -5.79573        0.20891        4.02974
C         -4.05291       -0.99225        5.44860
O         -3.05036       -1.06745        6.14414
O         -5.02207       -1.91955        5.57989
H          0.97144        0.33213        1.06295
H          0.82357        0.75235       -0.64511
H          2.10927       -0.35006       -0.10115
H          0.39818       -1.66547       -1.16375
H          0.20076       -2.03755        1.85945
H         -0.28885       -3.21956        0.64230
H          1.41294       -2.73141        0.77473
H         -2.94409       -2.52782        0.68817
H         -4.29483       -2.17030        2.71839
H         -2.49178        1.72975        3.19355
H         -1.17584        1.35735        1.15155
H         -4.00278        1.00240        4.82848
H         -6.21158       -0.69316        3.56711
H         -6.38256        0.41683        4.93133
H         -5.94719        1.03854        3.33004
H         -4.67823       -2.51680        6.27741

--Link1--
%chk=JID_5140.chk
%mem=8GB
%nprocshared=4
# B3LYP/6-311++G(d,p) empiricaldispersion=gd3bj scf=xqc pop=npa geom=check

CID_11735927_JID_5140_Energie_neutraal

0 1

--Link1--
%chk=JID_5140.chk
%mem=8GB
%nprocshared=4
# B3LYP/6-311++G(d,p) empiricaldispersion=gd3bj scf=xqc pop=npa geom=check

CID_11735927_JID_5140_Energie_kation

1 2

--Link1--
%chk=JID_5140.chk
%mem=8GB
%nprocshared=4
# B3LYP/6-311++G(d,p) empiricaldispersion=gd3bj scf=xqc pop=npa geom=check

CID_11735927_JID_5140_Energie_anion

-1 2
