%chk=JID_1312.chk
%mem=8GB
%nprocshared=4
# opt freq B3LYP/6-31G(d) empiricaldispersion=gd3bj scf=xqc

CID_143076295_JID_1312_neutraal

0 1
C          1.44200        0.04700       -0.00300
C          0.38912        1.51480       -0.01658
C         -1.38680        1.29674       -0.02424
N         -2.12884       -0.33501        0.03498
C         -1.04772       -1.77073        0.07322
C          0.73427       -1.61380        0.03035
C         -1.75941       -3.06768        0.11976
N         -3.05319       -3.09539        0.21030
N         -1.09117       -4.25513        0.06127
N         -0.39070       -0.07640        1.07474
N         -0.39755       -0.23880       -1.04511
H          2.52130        0.16649       -0.00326
H          0.82523        2.50644       -0.01177
H         -2.11326        2.10030       -0.01556
H          1.37052       -2.48827        0.04603
H         -3.38860       -2.11460        0.23336
H         -0.31046       -4.28616       -0.58347
H         -1.74513       -5.01741       -0.09638
H         -1.37656       -0.22257        1.37266
H          0.18803       -0.72091        1.62192
H         -1.40377       -0.25002       -1.31322
H          0.02175        0.52366       -1.58574

--Link1--
%chk=JID_1312.chk
%mem=8GB
%nprocshared=4
# B3LYP/6-311++G(d,p) empiricaldispersion=gd3bj scf=xqc pop=npa geom=check

CID_143076295_JID_1312_Energie_neutraal

0 1

--Link1--
%chk=JID_1312.chk
%mem=8GB
%nprocshared=4
# B3LYP/6-311++G(d,p) empiricaldispersion=gd3bj scf=xqc pop=npa geom=check

CID_143076295_JID_1312_Energie_kation

1 2

--Link1--
%chk=JID_1312.chk
%mem=8GB
%nprocshared=4
# B3LYP/6-311++G(d,p) empiricaldispersion=gd3bj scf=xqc pop=npa geom=check

CID_143076295_JID_1312_Energie_anion

-1 2
