%chk=JID_3759.chk
%mem=8GB
%nprocshared=4
# opt freq B3LYP/6-31G(d) empiricaldispersion=gd3bj scf=xqc

CID_59189648_JID_3759_neutraal

0 1
C          1.09000       -0.03244       -0.02911
C          0.59072        1.31248        0.39294
C         -0.46835        1.92194       -0.15996
C         -0.94066        3.21888        0.27181
C         -2.02415        3.80609       -0.25843
C         -2.56509        5.11518        0.16388
O         -3.61100        5.55354       -0.29117
O         -1.76736        5.72062        1.07444
C         -2.22601        6.97765        1.60069
C         -1.44744        8.17198        1.00332
C         -1.70188        8.29040       -0.50807
C         -1.92175        9.46321        1.69140
C          0.06222        7.99889        1.23975
H          0.50073       -0.45486       -0.84910
H          1.04777       -0.72702        0.81538
H          2.13003        0.04418       -0.36060
H          1.14047        1.79083        1.20078
H         -1.01151        1.43000       -0.96509
H         -0.38246        3.70994        1.06654
H         -2.60282        3.32925       -1.04238
H         -3.30731        7.10467        1.46494
H         -2.05899        6.93198        2.68376
H         -2.77279        8.38005       -0.72175
H         -1.20672        9.17600       -0.92277
H         -1.32069        7.41981       -1.05202
H         -1.74237        9.42470        2.77179
H         -1.39480       10.33996        1.29833
H         -2.99484        9.62254        1.53651
H          0.28488        7.89713        2.30774
H          0.45059        7.11007        0.73054
H          0.62163        8.86361        0.86473

--Link1--
%chk=JID_3759.chk
%mem=8GB
%nprocshared=4
# B3LYP/6-311++G(d,p) empiricaldispersion=gd3bj scf=xqc pop=npa geom=check

CID_59189648_JID_3759_Energie_neutraal

0 1

--Link1--
%chk=JID_3759.chk
%mem=8GB
%nprocshared=4
# B3LYP/6-311++G(d,p) empiricaldispersion=gd3bj scf=xqc pop=npa geom=check

CID_59189648_JID_3759_Energie_kation

1 2

--Link1--
%chk=JID_3759.chk
%mem=8GB
%nprocshared=4
# B3LYP/6-311++G(d,p) empiricaldispersion=gd3bj scf=xqc pop=npa geom=check

CID_59189648_JID_3759_Energie_anion

-1 2
