%chk=JID_7976.chk
%mem=8GB
%nprocshared=4
# opt freq B3LYP/6-31G(d) empiricaldispersion=gd3bj scf=xqc

CID_86723696_JID_7976_neutraal

0 1
C          2.49200        0.00400       -0.01400
C          0.99425        0.10936        0.01229
C          0.23202       -1.11133        0.01151
C         -1.17763       -1.07015        0.03470
C         -1.85689        0.13265        0.06147
C         -1.12651        1.30938        0.06537
C          0.28534        1.33257        0.04251
O          0.66801        2.63678        0.05358
C          1.94571        3.24871        0.03470
C          2.73960        3.04289        1.32147
C          2.67270        3.09892       -1.29922
C          0.76966       -2.52288       -0.02957
O          0.04056       -3.49331       -0.18167
O          2.10635       -2.58991        0.13763
C          2.78572       -3.86572        0.11532
C          2.41752       -4.72397        1.31930
C          2.62617       -4.59291       -1.21616
H          2.85515       -0.46151        0.90826
H          2.81713       -0.56483       -0.89183
H          3.02174        0.94154       -0.08787
H         -1.76073       -1.99067        0.03084
H         -2.94253        0.15635        0.07783
H         -1.67082        2.25414        0.08578
H          1.70932        4.32236        0.06466
H          2.78861        2.00618        1.65462
H          3.75475        3.44099        1.23318
H          2.24154        3.57566        2.14099
H          2.17357        3.72012       -2.05328
H          3.71224        3.43259       -1.23011
H          2.64179        2.08935       -1.71154
H          3.84771       -3.60985        0.21307
H          1.37921       -5.06562        1.27664
H          3.06091       -5.60751        1.37872
H          2.52691       -4.14871        2.24476
H          2.82856       -3.91444       -2.05146
H          3.31510       -5.44140       -1.27878
H          1.61290       -4.98106       -1.35516

--Link1--
%chk=JID_7976.chk
%mem=8GB
%nprocshared=4
# B3LYP/6-311++G(d,p) empiricaldispersion=gd3bj scf=xqc pop=npa geom=check

CID_86723696_JID_7976_Energie_neutraal

0 1

--Link1--
%chk=JID_7976.chk
%mem=8GB
%nprocshared=4
# B3LYP/6-311++G(d,p) empiricaldispersion=gd3bj scf=xqc pop=npa geom=check

CID_86723696_JID_7976_Energie_kation

1 2

--Link1--
%chk=JID_7976.chk
%mem=8GB
%nprocshared=4
# B3LYP/6-311++G(d,p) empiricaldispersion=gd3bj scf=xqc pop=npa geom=check

CID_86723696_JID_7976_Energie_anion

-1 2
