%chk=JID_5407.chk
%mem=8GB
%nprocshared=4
# opt freq B3LYP/6-31G(d) empiricaldispersion=gd3bj scf=xqc

CID_109945048_JID_5407_neutraal

0 1
C          0.98689        0.02359       -0.09629
C          0.47536        0.80876       -1.32818
C          1.00379        0.09038       -2.57816
C         -1.05660        0.78362       -1.27581
C          1.04045        2.24245       -1.24817
O          1.76871        2.59614       -0.31512
N          0.80556        3.18587       -2.19200
C         -0.17888        3.28911       -3.26484
C         -1.43876        4.04254       -2.78565
O         -1.11391        5.23787       -2.06708
C          0.48304        3.97769       -4.41530
C          0.80021        5.29182       -4.70044
C          1.44182        5.28658       -5.96190
C          1.47918        3.97386       -6.36719
O          0.89951        3.17231       -5.43792
H          0.63461       -1.01433       -0.10844
H          0.64055        0.48138        0.83792
H          2.08268       -0.00080       -0.06485
H          0.71109       -0.96588       -2.57935
H          0.63121        0.52682       -3.50738
H          2.09834        0.13520       -2.62128
H         -1.43521        1.46074       -0.50194
H         -1.51594        1.07121       -2.22353
H         -1.42882       -0.22264       -1.05001
H          1.32394        4.03594       -2.00264
H         -0.48667        2.29736       -3.59533
H         -2.08234        4.31586       -3.62858
H         -2.02717        3.41769       -2.10682
H         -0.63421        4.95797       -1.26548
H          0.58978        6.14763       -4.07243
H          1.83108        6.13429       -6.50801
H          1.86371        3.47114       -7.24376

--Link1--
%chk=JID_5407.chk
%mem=8GB
%nprocshared=4
# B3LYP/6-311++G(d,p) empiricaldispersion=gd3bj scf=xqc pop=npa geom=check

CID_109945048_JID_5407_Energie_neutraal

0 1

--Link1--
%chk=JID_5407.chk
%mem=8GB
%nprocshared=4
# B3LYP/6-311++G(d,p) empiricaldispersion=gd3bj scf=xqc pop=npa geom=check

CID_109945048_JID_5407_Energie_kation

1 2

--Link1--
%chk=JID_5407.chk
%mem=8GB
%nprocshared=4
# B3LYP/6-311++G(d,p) empiricaldispersion=gd3bj scf=xqc pop=npa geom=check

CID_109945048_JID_5407_Energie_anion

-1 2
