%chk=JID_5662.chk
%mem=8GB
%nprocshared=4
# opt freq B3LYP/6-31G(d) empiricaldispersion=gd3bj scf=xqc

CID_64490672_JID_5662_neutraal

0 1
C          1.05740        0.07867        0.02274
C          0.80515       -0.27885        1.48064
C          0.74142        0.94857        2.41415
C         -0.35388        1.96002        1.99732
O         -1.62161        1.29950        1.87803
C         -2.65601        2.21584        1.54620
N          0.44514        0.52881        3.80482
C          1.43893       -0.20051        4.47644
C          2.65256        0.37933        4.89377
C          3.64018       -0.43296        5.47971
C          3.41452       -1.78947        5.67689
C          2.21434       -2.36923        5.29490
C          1.23499       -1.57468        4.69552
O          4.40624       -2.52270        6.25780
C          2.94345        1.84677        4.74297
H          0.20822        0.61279       -0.41328
H          1.20951       -0.83225       -0.56532
H          1.95165        0.70123       -0.08025
H         -0.11728       -0.86794        1.55405
H          1.61704       -0.94127        1.80426
H          1.69963        1.47733        2.37612
H         -0.43065        2.75274        2.75213
H         -0.09726        2.42458        1.03866
H         -2.76497        2.97128        2.33022
H         -2.44827        2.69607        0.58521
H         -3.59417        1.66067        1.46369
H         -0.45677        0.05158        3.82140
H          4.58724       -0.00356        5.79704
H          2.02303       -3.42654        5.44282
H          0.30510       -2.04152        4.38020
H          4.09828       -3.43909        6.34822
H          3.56497        2.20446        5.57145
H          3.47683        2.03109        3.80561
H          2.02707        2.44491        4.76096

--Link1--
%chk=JID_5662.chk
%mem=8GB
%nprocshared=4
# B3LYP/6-311++G(d,p) empiricaldispersion=gd3bj scf=xqc pop=npa geom=check

CID_64490672_JID_5662_Energie_neutraal

0 1

--Link1--
%chk=JID_5662.chk
%mem=8GB
%nprocshared=4
# B3LYP/6-311++G(d,p) empiricaldispersion=gd3bj scf=xqc pop=npa geom=check

CID_64490672_JID_5662_Energie_kation

1 2

--Link1--
%chk=JID_5662.chk
%mem=8GB
%nprocshared=4
# B3LYP/6-311++G(d,p) empiricaldispersion=gd3bj scf=xqc pop=npa geom=check

CID_64490672_JID_5662_Energie_anion

-1 2
