%chk=JID_10607.chk
%mem=8GB
%nprocshared=4
# opt freq B3LYP/6-31G(d) empiricaldispersion=gd3bj scf=xqc

CID_16784101_JID_10607_neutraal

0 1
C          2.41100       -0.71300        0.03900
C          1.24447        0.18947        0.03595
C          0.93393        1.34137        0.72242
C         -0.34580        1.77237        0.26052
C         -0.74286        0.80209       -0.64771
O          0.22242       -0.14750       -0.79399
C         -1.96691        0.61154       -1.45583
C         -1.16996        2.90121        0.66689
O         -2.39982        2.80752        0.70239
N         -0.62082        4.08497        1.08897
C          0.60164        4.59087        0.75867
N          1.54088        4.07780        0.01286
C          2.60682        4.95689       -0.06168
C          2.43966        6.15763        0.63008
S          0.89303        6.14749        1.39135
C          3.43636        7.14891        0.64886
C          4.61067        6.94142       -0.08569
C          4.81151        5.72029       -0.72921
C          3.81600        4.73497       -0.74556
N          5.66662        7.85637        0.01923
H          2.15621       -1.66344        0.51756
H          2.74292       -0.91837       -0.98341
H          3.24908       -0.26851        0.58467
H          1.56068        1.82033        1.46147
H         -1.81933       -0.15303       -2.22507
H         -2.79826        0.29629       -0.81805
H         -2.24744        1.54259       -1.95782
H         -1.27974        4.73316        1.49281
H          3.29150        8.05929        1.22184
H          5.75271        5.51722       -1.23485
H          3.97362        3.79663       -1.26805
H          5.37261        8.80962        0.20944
H          6.33258        7.80797       -0.74626

--Link1--
%chk=JID_10607.chk
%mem=8GB
%nprocshared=4
# B3LYP/6-311++G(d,p) empiricaldispersion=gd3bj scf=xqc pop=npa geom=check

CID_16784101_JID_10607_Energie_neutraal

0 1

--Link1--
%chk=JID_10607.chk
%mem=8GB
%nprocshared=4
# B3LYP/6-311++G(d,p) empiricaldispersion=gd3bj scf=xqc pop=npa geom=check

CID_16784101_JID_10607_Energie_kation

1 2

--Link1--
%chk=JID_10607.chk
%mem=8GB
%nprocshared=4
# B3LYP/6-311++G(d,p) empiricaldispersion=gd3bj scf=xqc pop=npa geom=check

CID_16784101_JID_10607_Energie_anion

-1 2
