%chk=JID_3959.chk
%mem=8GB
%nprocshared=4
# opt freq B3LYP/6-31G(d) empiricaldispersion=gd3bj scf=xqc

CID_57124216_JID_3959_neutraal

0 1
C          0.99368        0.01948        0.09788
C          0.11123        0.35578       -1.09440
C          0.65109       -0.22969       -2.37414
C          0.32780       -1.54228       -2.74518
C          0.84775       -2.09839       -3.92146
C          1.66804       -1.33012       -4.75170
C          1.99919       -0.02499       -4.38405
C          1.50029        0.51907       -3.19892
C          0.44559       -3.48587       -4.27158
O         -0.74991       -3.77472       -4.17484
C          1.46893       -4.51841       -4.76477
C          1.44757       -4.63652       -6.28262
N          2.82920       -4.28101       -4.25457
H          1.06539       -1.06322        0.24712
H          0.58076        0.46061        1.01057
H          2.00888        0.40764       -0.03784
H         -0.90596       -0.01610       -0.92087
H          0.02298        1.44458       -1.19332
H         -0.33121       -2.13981       -2.11712
H          2.04196       -1.71959       -5.69180
H          2.64092        0.57490       -5.02482
H          1.77018        1.53744       -2.92644
H          1.14645       -5.47484       -4.33385
H          1.79815       -3.72248       -6.77161
H          2.08310       -5.46274       -6.61946
H          0.43057       -4.82803       -6.64226
H          3.40676       -5.09542       -4.46418
H          3.26629       -3.50395       -4.74606

--Link1--
%chk=JID_3959.chk
%mem=8GB
%nprocshared=4
# B3LYP/6-311++G(d,p) empiricaldispersion=gd3bj scf=xqc pop=npa geom=check

CID_57124216_JID_3959_Energie_neutraal

0 1

--Link1--
%chk=JID_3959.chk
%mem=8GB
%nprocshared=4
# B3LYP/6-311++G(d,p) empiricaldispersion=gd3bj scf=xqc pop=npa geom=check

CID_57124216_JID_3959_Energie_kation

1 2

--Link1--
%chk=JID_3959.chk
%mem=8GB
%nprocshared=4
# B3LYP/6-311++G(d,p) empiricaldispersion=gd3bj scf=xqc pop=npa geom=check

CID_57124216_JID_3959_Energie_anion

-1 2
