%chk=JID_5973.chk
%mem=8GB
%nprocshared=4
# opt freq B3LYP/6-31G(d) empiricaldispersion=gd3bj scf=xqc

CID_88019017_JID_5973_neutraal

0 1
C          0.99260        0.07797        0.06218
C          0.41945        0.89646       -1.09125
C          1.07091        0.64069       -2.47932
C          1.04986       -0.85368       -2.89171
C         -0.33707       -1.48048       -2.98260
C          0.36371        1.51908       -3.57595
N          0.64553        2.95333       -3.39398
C          0.16072        3.79354       -4.50018
C         -1.28767        4.39307       -4.38897
C         -1.53918        5.11511       -3.03104
C         -0.56075        6.23059       -2.68197
C         -1.53857        5.39139       -5.55818
C         -1.46306        4.80352       -6.96512
N         -2.29617        3.31642       -4.48727
N          2.49056        1.06581       -2.39589
H          0.81283       -0.99207       -0.07419
H          0.51035        0.37270        1.00026
H          2.06842        0.23905        0.17784
H         -0.65981        0.70871       -1.14874
H          0.52117        1.95444       -0.81764
H          1.53474       -0.96943       -3.87068
H          1.65173       -1.44834       -2.19284
H         -0.96062       -0.97475       -3.72513
H         -0.25025       -2.52921       -3.28584
H         -0.85519       -1.45943       -2.01991
H          0.73262        1.20737       -4.56159
H         -0.71234        1.33103       -3.54845
H          0.26379        3.27460       -2.50869
H          0.86465        4.63186       -4.57581
H          0.27430        3.24802       -5.44504
H         -2.55102        5.54379       -3.02955
H         -1.52983        4.38832       -2.20823
H         -0.58371        7.03626       -3.42038
H         -0.83011        6.66638       -1.71385
H          0.46465        5.86054       -2.59909
H         -2.52799        5.85322       -5.43891
H         -0.81152        6.21066       -5.50614
H         -2.17216        3.98219       -7.10220
H         -1.70717        5.57732       -7.70091
H         -0.45792        4.44110       -7.19759
H         -2.25370        2.73617       -3.65191
H         -3.23169        3.72242       -4.49570
H          2.94563        0.85250       -3.28404
H          2.47521        2.09263       -2.38530

--Link1--
%chk=JID_5973.chk
%mem=8GB
%nprocshared=4
# B3LYP/6-311++G(d,p) empiricaldispersion=gd3bj scf=xqc pop=npa geom=check

CID_88019017_JID_5973_Energie_neutraal

0 1

--Link1--
%chk=JID_5973.chk
%mem=8GB
%nprocshared=4
# B3LYP/6-311++G(d,p) empiricaldispersion=gd3bj scf=xqc pop=npa geom=check

CID_88019017_JID_5973_Energie_kation

1 2

--Link1--
%chk=JID_5973.chk
%mem=8GB
%nprocshared=4
# B3LYP/6-311++G(d,p) empiricaldispersion=gd3bj scf=xqc pop=npa geom=check

CID_88019017_JID_5973_Energie_anion

-1 2
