%chk=JID_3635.chk
%mem=8GB
%nprocshared=4
# opt freq B3LYP/6-31G(d) empiricaldispersion=gd3bj scf=xqc

CID_132224549_JID_3635_neutraal

0 1
C          1.05818        0.06041       -0.05446
C          0.55301        1.34698        0.50464
C         -0.45600        2.09077        0.02934
N         -1.17789        1.76006       -1.08057
C         -0.74081        2.08754       -2.25459
C          0.47846        2.80277       -2.76034
C          0.83935        4.02366       -2.33147
N          0.30995        4.83138       -1.36747
C          1.21094        2.14868       -3.92458
C          1.69417        0.73641       -3.59340
C          0.37682        2.14609       -5.20926
O         -0.84778        3.18535        0.78992
C         -2.26489        3.26824        0.92021
H          2.10608        0.16845       -0.34878
H          0.48759       -0.28464       -0.92038
H          1.00080       -0.71975        0.71130
H          1.04230        1.68672        1.41399
H         -1.39397        1.74357       -3.07533
H          1.69123        4.51446       -2.80221
H          0.31206        5.82672       -1.56650
H         -0.54766        4.49211       -0.93335
H          2.11307        2.73738       -4.14308
H          0.85990        0.05332       -3.40233
H          2.27533        0.32423       -4.42571
H          2.34314        0.74454       -2.71206
H          0.98583        1.81701       -6.05872
H         -0.48066        1.46873       -5.14108
H          0.00267        3.14982       -5.43843
H         -2.68681        2.32546        1.28578
H         -2.48787        4.04667        1.65603
H         -2.73071        3.56006       -0.02689

--Link1--
%chk=JID_3635.chk
%mem=8GB
%nprocshared=4
# B3LYP/6-311++G(d,p) empiricaldispersion=gd3bj scf=xqc pop=npa geom=check

CID_132224549_JID_3635_Energie_neutraal

0 1

--Link1--
%chk=JID_3635.chk
%mem=8GB
%nprocshared=4
# B3LYP/6-311++G(d,p) empiricaldispersion=gd3bj scf=xqc pop=npa geom=check

CID_132224549_JID_3635_Energie_kation

1 2

--Link1--
%chk=JID_3635.chk
%mem=8GB
%nprocshared=4
# B3LYP/6-311++G(d,p) empiricaldispersion=gd3bj scf=xqc pop=npa geom=check

CID_132224549_JID_3635_Energie_anion

-1 2
