%chk=JID_4528.chk
%mem=8GB
%nprocshared=4
# opt freq B3LYP/6-31G(d) empiricaldispersion=gd3bj scf=xqc

CID_79968116_JID_4528_neutraal

0 1
C          0.95729        0.08721        0.02388
C          0.88398       -1.22259       -0.74144
N          1.08441       -2.38220        0.10594
C          0.01595       -3.26079        0.52190
C          0.92948       -4.34170        1.09515
N          2.19489       -4.07587        1.06078
C          2.32835       -2.86284        0.44204
O          3.38786       -2.31374        0.18432
N          0.44854       -5.51771        1.59673
C         -0.89579       -2.67268        1.60762
C         -2.41804       -2.71642        1.29791
C         -2.90866       -4.16374        1.12929
C         -3.16943       -2.08367        2.48663
C         -2.75193       -1.91066        0.03186
H          0.15050        0.16929        0.75701
H          0.86920        0.93252       -0.66580
H          1.90731        0.18138        0.55968
H         -0.07762       -1.31690       -1.25480
H          1.66743       -1.22548       -1.50818
H         -0.49526       -3.65428       -0.36011
H         -0.41113       -5.88344        1.20638
H          1.17227       -6.21956        1.72479
H         -0.72819       -3.19420        2.56012
H         -0.61851       -1.63074        1.80459
H         -2.66902       -4.76662        2.01219
H         -3.99559       -4.19655        0.99135
H         -2.45798       -4.64980        0.25835
H         -2.86189       -1.04311        2.64063
H         -4.25268       -2.08845        2.32046
H         -2.97369       -2.63102        3.41560
H         -2.38248       -0.88214        0.11002
H         -2.31371       -2.35880       -0.86521
H         -3.83506       -1.86162       -0.12904

--Link1--
%chk=JID_4528.chk
%mem=8GB
%nprocshared=4
# B3LYP/6-311++G(d,p) empiricaldispersion=gd3bj scf=xqc pop=npa geom=check

CID_79968116_JID_4528_Energie_neutraal

0 1

--Link1--
%chk=JID_4528.chk
%mem=8GB
%nprocshared=4
# B3LYP/6-311++G(d,p) empiricaldispersion=gd3bj scf=xqc pop=npa geom=check

CID_79968116_JID_4528_Energie_kation

1 2

--Link1--
%chk=JID_4528.chk
%mem=8GB
%nprocshared=4
# B3LYP/6-311++G(d,p) empiricaldispersion=gd3bj scf=xqc pop=npa geom=check

CID_79968116_JID_4528_Energie_anion

-1 2
