%chk=JID_4576.chk
%mem=8GB
%nprocshared=4
# opt freq B3LYP/6-31G(d) empiricaldispersion=gd3bj scf=xqc

CID_65275436_JID_4576_neutraal

0 1
C          1.02935        0.08543        0.04290
C          0.52794        0.69975       -1.27764
C          1.03428       -0.15624       -2.45630
C         -1.01450        0.64473       -1.28367
C          1.02375        2.12941       -1.39691
N          2.30909        2.38966       -1.66580
S          2.46396        4.05213       -1.69526
C          0.81060        4.31740       -1.32943
N          0.14987        3.19442       -1.19043
O          0.30655        5.53737       -1.21046
C         -1.08622        5.69658       -0.87867
C         -2.19922        4.99971       -1.68741
N         -2.97768        4.84900       -0.43049
C         -1.71534        4.99189        0.34043
H          0.67147       -0.94329        0.16423
H          0.68226        0.66534        0.90634
H          2.12467        0.06267        0.08410
H          0.64961       -1.18089       -2.39682
H          0.71632        0.26597       -3.41693
H          2.12862       -0.21900       -2.47098
H         -1.43993        1.19672       -0.43711
H         -1.42414        1.08192       -2.20204
H         -1.37573       -0.38796       -1.21653
H         -1.28332        6.77881       -0.82771
H         -2.68578        5.62861       -2.44005
H         -1.95128        4.04502       -2.16006
H         -3.63875        5.60961       -0.26976
H         -1.28186        4.03416        0.64262
H         -1.80821        5.61433        1.23634

--Link1--
%chk=JID_4576.chk
%mem=8GB
%nprocshared=4
# B3LYP/6-311++G(d,p) empiricaldispersion=gd3bj scf=xqc pop=npa geom=check

CID_65275436_JID_4576_Energie_neutraal

0 1

--Link1--
%chk=JID_4576.chk
%mem=8GB
%nprocshared=4
# B3LYP/6-311++G(d,p) empiricaldispersion=gd3bj scf=xqc pop=npa geom=check

CID_65275436_JID_4576_Energie_kation

1 2

--Link1--
%chk=JID_4576.chk
%mem=8GB
%nprocshared=4
# B3LYP/6-311++G(d,p) empiricaldispersion=gd3bj scf=xqc pop=npa geom=check

CID_65275436_JID_4576_Energie_anion

-1 2
