%chk=JID_8448.chk
%mem=8GB
%nprocshared=4
# opt freq B3LYP/6-31G(d) empiricaldispersion=gd3bj scf=xqc

CID_6466649_JID_8448_neutraal

0 1
C          2.91400       -0.01100        0.00300
C          1.41496        0.02294       -0.02603
C          0.68767       -1.17062       -0.12087
C         -0.72456       -1.18455       -0.13307
C         -1.40906        0.04739       -0.02603
C         -0.67105        1.23908        0.07614
C          0.72332        1.22793        0.07673
C         -2.91143        0.14040       -0.00044
C         -1.46179       -2.51917       -0.21572
C         -0.99003       -3.38140       -1.38985
N         -1.29877       -3.25258        1.03590
C         -2.18869       -3.29048        2.08751
O         -1.71362       -3.41686        3.21695
C         -3.61076       -3.22857        1.82168
C         -4.40184       -3.68276        0.77934
C         -5.73939       -3.34167        1.09556
C         -5.69324       -2.71799        2.31828
O         -4.41639       -2.65294        2.77013
H          3.26136       -0.45952        0.93907
H          3.29695       -0.59540       -0.84003
H          3.33952        0.99511       -0.07263
H          1.24072       -2.10667       -0.17676
H         -1.18298        2.19549        0.16581
H          1.26122        2.16881        0.16591
H         -3.33729       -0.28412       -0.91495
H         -3.30919       -0.38143        0.87427
H         -3.25052        1.18031        0.05939
H         -2.51962       -2.32530       -0.38760
H          0.04460       -3.72034       -1.27019
H         -1.61019       -4.28121       -1.47307
H         -1.06122       -2.83255       -2.33515
H         -0.35374       -3.28743        1.39616
H         -4.05339       -4.21163       -0.09658
H         -6.62871       -3.53952        0.51386
H         -6.44107       -2.29217        2.97306

--Link1--
%chk=JID_8448.chk
%mem=8GB
%nprocshared=4
# B3LYP/6-311++G(d,p) empiricaldispersion=gd3bj scf=xqc pop=npa geom=check

CID_6466649_JID_8448_Energie_neutraal

0 1

--Link1--
%chk=JID_8448.chk
%mem=8GB
%nprocshared=4
# B3LYP/6-311++G(d,p) empiricaldispersion=gd3bj scf=xqc pop=npa geom=check

CID_6466649_JID_8448_Energie_kation

1 2

--Link1--
%chk=JID_8448.chk
%mem=8GB
%nprocshared=4
# B3LYP/6-311++G(d,p) empiricaldispersion=gd3bj scf=xqc pop=npa geom=check

CID_6466649_JID_8448_Energie_anion

-1 2
