%chk=JID_5074.chk
%mem=8GB
%nprocshared=4
# opt freq B3LYP/6-31G(d) empiricaldispersion=gd3bj scf=xqc

CID_143241070_JID_5074_neutraal

0 1
C          1.05781        0.03774       -0.07234
C          1.00201       -0.55057        1.31906
C         -1.48022       -2.00623       -2.09281
C         -1.27854       -1.67458       -3.58255
C         -0.72682       -2.92483       -4.29508
C         -2.64449       -1.33611       -4.21228
C         -0.34094       -0.48276       -3.70648
C         -0.57324        0.86524       -3.47757
C          0.63420        1.58780       -3.70456
C          1.57513        0.64265       -4.06767
N          0.98634       -0.59277       -4.05859
C          0.88331        3.01938       -3.58713
O          1.97117        3.53754       -3.81314
O         -0.23003        3.70789       -3.19670
C         -0.02482        5.11374       -3.06765
H          0.06601        0.37834       -0.38274
H          1.41079       -0.70827       -0.79003
H          1.73968        0.89281       -0.10222
H          0.65103        0.19577        2.03795
H          0.31873       -1.40459        1.34763
H          1.99326       -0.89135        1.63247
H         -2.16393       -2.85299       -1.96388
H         -1.90000       -1.15478       -1.54431
H         -0.53064       -2.26940       -1.61247
H         -1.43770       -3.75752       -4.23846
H         -0.53165       -2.72736       -5.35567
H          0.20921       -3.27054       -3.84113
H         -3.13288       -0.49941       -3.69968
H         -2.53679       -1.05895       -5.26763
H         -3.32785       -2.19158       -4.15944
H         -1.51832        1.29478       -3.16761
H          2.62064        0.75503       -4.32529
H          1.46658       -1.45533       -4.27931
H          0.73906        5.32408       -2.31241
H          0.25122        5.55133       -4.03218
H         -0.96580        5.56488       -2.74072

--Link1--
%chk=JID_5074.chk
%mem=8GB
%nprocshared=4
# B3LYP/6-311++G(d,p) empiricaldispersion=gd3bj scf=xqc pop=npa geom=check

CID_143241070_JID_5074_Energie_neutraal

0 1

--Link1--
%chk=JID_5074.chk
%mem=8GB
%nprocshared=4
# B3LYP/6-311++G(d,p) empiricaldispersion=gd3bj scf=xqc pop=npa geom=check

CID_143241070_JID_5074_Energie_kation

1 2

--Link1--
%chk=JID_5074.chk
%mem=8GB
%nprocshared=4
# B3LYP/6-311++G(d,p) empiricaldispersion=gd3bj scf=xqc pop=npa geom=check

CID_143241070_JID_5074_Energie_anion

-1 2
