%chk=JID_10652.chk
%mem=8GB
%nprocshared=4
# opt freq B3LYP/6-31G(d) empiricaldispersion=gd3bj scf=xqc

CID_105703910_JID_10652_neutraal

0 1
C          0.93298       -0.02631        0.06940
C          0.53824        0.39070        1.47777
C          1.14532        1.73389        1.88518
C          0.53616        2.96407        1.18651
C         -0.92148        3.26418        1.57669
C         -1.11855        3.47634        3.05119
O         -0.30630        3.92376        3.84315
O         -2.36217        3.15047        3.45321
N          1.40486        4.11974        1.42821
C          1.62974        5.14591        0.58358
O          1.62175        6.29947        1.00776
N          1.91393        4.92578       -0.71713
C          2.57383        3.76676       -1.33597
C          2.47694        3.93197       -2.86202
C          2.80006        2.69099       -3.68684
C          4.16035        2.04790       -3.41830
C          4.21418        1.33534       -2.06077
C          4.62075        2.25301       -0.89771
C          4.03421        3.66623       -0.87445
C          5.17262        0.14014       -2.11950
H          0.55148        0.66957       -0.68274
H          0.52363       -1.01627       -0.15642
H          2.02109       -0.08446       -0.02840
H         -0.55206        0.40676        1.57192
H          0.89975       -0.37659        2.17323
H          1.05996        1.84077        2.97306
H          2.22427        1.70205        1.68130
H          0.49492        2.78961        0.11240
H         -1.27404        4.16824        1.06641
H         -1.55934        2.43308        1.25559
H         -2.37406        3.37133        4.40866
H          1.33491        4.47762        2.37875
H          2.11708        5.81589       -1.15626
H          2.04220        2.86508       -1.03949
H          1.45530        4.24012       -3.12385
H          3.12336        4.75840       -3.18667
H          2.75810        2.97363       -4.74655
H          2.00732        1.94588       -3.54338
H          4.96479        2.78716       -3.50962
H          4.32509        1.31379       -4.21771
H          3.22112        0.92325       -1.84341
H          5.71397        2.34930       -0.86325
H          4.34128        1.74912        0.03764
H          4.66300        4.33069       -1.48112
H          4.13868        4.03680        0.15347
H          5.20244       -0.38207       -1.15714
H          4.84732       -0.58148       -2.87676
H          6.19065        0.45763       -2.36872

--Link1--
%chk=JID_10652.chk
%mem=8GB
%nprocshared=4
# B3LYP/6-311++G(d,p) empiricaldispersion=gd3bj scf=xqc pop=npa geom=check

CID_105703910_JID_10652_Energie_neutraal

0 1

--Link1--
%chk=JID_10652.chk
%mem=8GB
%nprocshared=4
# B3LYP/6-311++G(d,p) empiricaldispersion=gd3bj scf=xqc pop=npa geom=check

CID_105703910_JID_10652_Energie_kation

1 2

--Link1--
%chk=JID_10652.chk
%mem=8GB
%nprocshared=4
# B3LYP/6-311++G(d,p) empiricaldispersion=gd3bj scf=xqc pop=npa geom=check

CID_105703910_JID_10652_Energie_anion

-1 2
