%chk=JID_3513.chk
%mem=8GB
%nprocshared=4
# opt freq B3LYP/6-31G(d) empiricaldispersion=gd3bj scf=xqc

CID_150718283_JID_3513_neutraal

0 1
C          0.91194       -0.04034       -0.02489
C          0.43939        1.40663        0.05095
C          0.81295        2.26887       -1.18571
C          0.36376        1.60668       -2.51901
C         -1.13492        1.33041       -2.67309
N         -1.86364        2.54098       -3.06922
N         -2.54867        3.07882       -2.17902
N         -3.20179        3.56126       -1.37827
N          0.29867        3.64979       -1.05801
C          0.80533        4.55681       -2.09947
C          0.53495        5.95531       -1.55957
C          0.26574        5.76668       -0.07569
C          0.63429        4.32015        0.20196
H          0.36373       -0.60661       -0.78304
H          0.74524       -0.53809        0.93613
H          1.98135       -0.09344       -0.25156
H         -0.64341        1.42420        0.22222
H          0.90177        1.83661        0.94769
H          1.91152        2.31314       -1.21229
H          0.71434        2.20039       -3.37229
H          0.89274        0.65027       -2.61702
H         -1.26330        0.60411       -3.48463
H         -1.56428        0.86295       -1.78018
H          0.30279        4.41591       -3.06079
H          1.88470        4.42911       -2.25161
H          1.39705        6.60993       -1.72639
H         -0.33395        6.41138       -2.04682
H          0.84148        6.46423        0.54022
H         -0.79840        5.93586        0.13009
H          1.70475        4.23914        0.42899
H          0.05800        3.94009        1.05095

--Link1--
%chk=JID_3513.chk
%mem=8GB
%nprocshared=4
# B3LYP/6-311++G(d,p) empiricaldispersion=gd3bj scf=xqc pop=npa geom=check

CID_150718283_JID_3513_Energie_neutraal

0 1

--Link1--
%chk=JID_3513.chk
%mem=8GB
%nprocshared=4
# B3LYP/6-311++G(d,p) empiricaldispersion=gd3bj scf=xqc pop=npa geom=check

CID_150718283_JID_3513_Energie_kation

1 2

--Link1--
%chk=JID_3513.chk
%mem=8GB
%nprocshared=4
# B3LYP/6-311++G(d,p) empiricaldispersion=gd3bj scf=xqc pop=npa geom=check

CID_150718283_JID_3513_Energie_anion

-1 2
