%chk=JID_9922.chk
%mem=8GB
%nprocshared=4
# opt freq B3LYP/6-31G(d) empiricaldispersion=gd3bj scf=xqc

CID_109338717_JID_9922_neutraal

0 1
C          1.06778        0.01367        0.07225
C          0.44692        0.65515       -1.17145
C         -0.01694        2.09499       -0.90459
C          1.15444        3.06726       -0.77707
C          2.11109        2.95652       -1.96083
N          2.52066        1.57523       -2.19147
C          1.42211        0.61937       -2.35414
C          3.80312        1.35666       -2.71288
O          4.53990        2.27958       -3.06642
C          4.33411       -0.03654       -2.82734
C          5.20724       -0.32354       -3.85541
C          5.71208       -1.60476       -3.89504
N          5.36328       -2.52033       -2.97735
C          4.52541       -2.13284       -2.00539
N          3.98391       -0.92190       -1.87026
N          6.56906       -1.94049       -4.95822
C          7.09736       -3.31002       -4.97456
C          6.06276       -4.26990       -5.56429
C          8.36118       -3.33184       -5.83939
H          1.31879       -1.03461       -0.12250
H          0.36360        0.03598        0.91059
H          1.98446        0.52159        0.38742
H         -0.43525        0.05825       -1.43641
H         -0.65492        2.42062       -1.73637
H         -0.63525        2.13731       -0.00041
H          1.69965        2.86115        0.15174
H          0.77795        4.09354       -0.70097
H          2.98654        3.58844       -1.77518
H          1.63432        3.31902       -2.87955
H          1.77095       -0.39822       -2.53423
H          0.89454        0.91307       -3.27152
H          5.47136        0.41998       -4.59591
H          4.26388       -2.87691       -1.26091
H          7.30819       -1.24270       -5.00738
H          7.38574       -3.63719       -3.96769
H          5.76649       -3.96236       -6.57366
H          6.46643       -5.28626       -5.62404
H          5.15393       -4.31091       -4.95589
H          9.12611       -2.66501       -5.42619
H          8.78482       -4.34053       -5.88683
H          8.15133       -3.00001       -6.86257

--Link1--
%chk=JID_9922.chk
%mem=8GB
%nprocshared=4
# B3LYP/6-311++G(d,p) empiricaldispersion=gd3bj scf=xqc pop=npa geom=check

CID_109338717_JID_9922_Energie_neutraal

0 1

--Link1--
%chk=JID_9922.chk
%mem=8GB
%nprocshared=4
# B3LYP/6-311++G(d,p) empiricaldispersion=gd3bj scf=xqc pop=npa geom=check

CID_109338717_JID_9922_Energie_kation

1 2

--Link1--
%chk=JID_9922.chk
%mem=8GB
%nprocshared=4
# B3LYP/6-311++G(d,p) empiricaldispersion=gd3bj scf=xqc pop=npa geom=check

CID_109338717_JID_9922_Energie_anion

-1 2
