%chk=JID_5935.chk
%mem=8GB
%nprocshared=4
# opt freq B3LYP/6-31G(d) empiricaldispersion=gd3bj scf=xqc

CID_81004268_JID_5935_neutraal

0 1
C          2.51300        0.26800        0.00200
C          1.02840        0.33541        0.01436
C          0.13459       -0.72175        0.03039
S         -1.47042       -0.12163        0.04254
C         -0.86908        1.48654        0.02786
N          0.44211        1.59025        0.00322
C         -1.80843        2.65902       -0.00243
C         -1.82306        3.52387        1.29086
C         -0.44487        4.18961        1.51090
C         -2.84858        4.66307        1.09120
C         -2.17142        2.72013        2.56926
C         -3.57527        2.17045        2.61134
O         -4.17266        1.60183        1.71406
O         -4.16217        2.35153        3.81006
C          0.40210       -2.18504        0.03340
H          2.90434        0.75544       -0.89642
H          2.91979        0.78174        0.87868
H          2.87601       -0.76382        0.01438
H         -1.50781        3.29132       -0.84987
H         -2.82309        2.32390       -0.24776
H         -0.10446        4.70723        0.60711
H         -0.49022        4.93102        2.31739
H          0.32037        3.45969        1.79338
H         -3.84922        4.27555        0.87221
H         -2.92252        5.29131        1.98617
H         -2.55961        5.30989        0.25475
H         -1.48101        1.88315        2.72251
H         -2.04913        3.37965        3.43958
H         -5.04959        1.94883        3.70497
H          0.98903       -2.46417       -0.84797
H          0.97068       -2.46403        0.92655
H         -0.51786       -2.77847        0.02281

--Link1--
%chk=JID_5935.chk
%mem=8GB
%nprocshared=4
# B3LYP/6-311++G(d,p) empiricaldispersion=gd3bj scf=xqc pop=npa geom=check

CID_81004268_JID_5935_Energie_neutraal

0 1

--Link1--
%chk=JID_5935.chk
%mem=8GB
%nprocshared=4
# B3LYP/6-311++G(d,p) empiricaldispersion=gd3bj scf=xqc pop=npa geom=check

CID_81004268_JID_5935_Energie_kation

1 2

--Link1--
%chk=JID_5935.chk
%mem=8GB
%nprocshared=4
# B3LYP/6-311++G(d,p) empiricaldispersion=gd3bj scf=xqc pop=npa geom=check

CID_81004268_JID_5935_Energie_anion

-1 2
