%chk=JID_7990.chk
%mem=8GB
%nprocshared=4
# opt freq B3LYP/6-31G(d) empiricaldispersion=gd3bj scf=xqc

CID_95843082_JID_7990_neutraal

0 1
C         -2.24300       -0.04000       -0.00500
C         -0.82816        0.34732        0.15349
N          0.01367       -0.30648        0.96260
O          1.20806        0.40090        0.81979
C          0.96285        1.41325       -0.06770
N         -0.28248        1.41932       -0.50142
C          2.10062        2.34257       -0.40099
C          3.01744        2.64199        0.81410
N          3.94876        1.49939        1.13575
C          4.69808        1.09840       -0.09411
C          3.70074        0.71619       -1.18849
O          2.84242        1.81080       -1.52821
S          4.91583        1.80651        2.50638
O          6.05604        2.58130        2.06901
O          4.04225        2.28735        3.55512
C          5.46177        0.17225        2.95873
C          1.51862        3.67853       -0.89836
H         -2.85000        0.41061        0.78604
H         -2.63110        0.29930       -0.97038
H         -2.36226       -1.12692        0.04328
H          3.64468        3.51629        0.59313
H          2.40026        2.87463        1.68977
H          5.34107        0.23941        0.11360
H          5.31486        1.93778       -0.43544
H          3.09925       -0.15145       -0.89739
H          4.24590        0.43970       -2.09688
H          4.58847       -0.46771        3.09545
H          6.12500       -0.21960        2.18715
H          6.00949        0.25473        3.90052
H          0.89757        3.53405       -1.79098
H          0.90755        4.16679       -0.13105
H          2.31930        4.36643       -1.19477

--Link1--
%chk=JID_7990.chk
%mem=8GB
%nprocshared=4
# B3LYP/6-311++G(d,p) empiricaldispersion=gd3bj scf=xqc pop=npa geom=check

CID_95843082_JID_7990_Energie_neutraal

0 1

--Link1--
%chk=JID_7990.chk
%mem=8GB
%nprocshared=4
# B3LYP/6-311++G(d,p) empiricaldispersion=gd3bj scf=xqc pop=npa geom=check

CID_95843082_JID_7990_Energie_kation

1 2

--Link1--
%chk=JID_7990.chk
%mem=8GB
%nprocshared=4
# B3LYP/6-311++G(d,p) empiricaldispersion=gd3bj scf=xqc pop=npa geom=check

CID_95843082_JID_7990_Energie_anion

-1 2
