%chk=JID_10388.chk
%mem=8GB
%nprocshared=4
# opt freq B3LYP/6-31G(d) empiricaldispersion=gd3bj scf=xqc

CID_60912898_JID_10388_neutraal

0 1
C          1.26600       -0.09700        0.26800
C          0.42355        1.16615        0.14985
C         -1.00000        0.70202       -0.16337
C         -0.96457       -0.83609       -0.14357
C          0.48988       -1.14390       -0.51374
C         -2.00948       -1.49316       -1.07956
C         -1.88093       -3.00149       -1.04589
C         -2.06118       -3.86867        0.01792
C         -1.82418       -5.22765       -0.33670
C         -1.46591       -5.35947       -1.65848
S         -1.40965       -3.85303       -2.46262
N         -3.34564       -1.04941       -0.65362
C         -4.38609       -1.12828       -1.67892
C         -5.12906       -2.47118       -1.80958
C         -5.72235       -3.02984       -0.54083
C         -6.43313       -2.24464        0.36236
N         -6.98835       -2.71088        1.50477
C         -6.84756       -4.02889        1.75549
C         -6.18007       -4.90290        0.91596
C         -5.61670       -4.39354       -0.24996
H          1.34280       -0.39549        1.32044
H          2.28055        0.04305       -0.11623
H          0.46586        1.75901        1.06913
H          0.79453        1.79857       -0.66499
H         -1.29740        1.08207       -1.14818
H         -1.71509        1.09340        0.56816
H         -1.13089       -1.16753        0.89261
H          0.65864       -1.01648       -1.58984
H          0.79216       -2.15741       -0.23365
H         -1.81619       -1.12040       -2.09461
H         -2.35102       -3.54139        1.00962
H         -1.90976       -6.06459        0.34527
H         -1.22686       -6.26892       -2.19242
H         -3.62541       -1.54112        0.19375
H         -5.12280       -0.35338       -1.43426
H         -3.98847       -0.83701       -2.65906
H         -5.94884       -2.34503       -2.52879
H         -4.45446       -3.20898       -2.25600
H         -6.58531       -1.18159        0.19739
H         -7.30395       -4.37643        2.67766
H         -6.10165       -5.95562        1.16120
H         -5.08887       -5.06310       -0.92529

--Link1--
%chk=JID_10388.chk
%mem=8GB
%nprocshared=4
# B3LYP/6-311++G(d,p) empiricaldispersion=gd3bj scf=xqc pop=npa geom=check

CID_60912898_JID_10388_Energie_neutraal

0 1

--Link1--
%chk=JID_10388.chk
%mem=8GB
%nprocshared=4
# B3LYP/6-311++G(d,p) empiricaldispersion=gd3bj scf=xqc pop=npa geom=check

CID_60912898_JID_10388_Energie_kation

1 2

--Link1--
%chk=JID_10388.chk
%mem=8GB
%nprocshared=4
# B3LYP/6-311++G(d,p) empiricaldispersion=gd3bj scf=xqc pop=npa geom=check

CID_60912898_JID_10388_Energie_anion

-1 2
