%chk=JID_5704.chk
%mem=8GB
%nprocshared=4
# opt freq B3LYP/6-31G(d) empiricaldispersion=gd3bj scf=xqc

CID_154229346_JID_5704_neutraal

0 1
C          0.98254       -0.08684       -0.04641
C          0.35133       -0.17973        1.32897
O          1.05670        0.66409        2.25155
C          2.11189        0.09100        2.89286
O          2.50354       -1.05505        2.73094
C          2.71376        1.07285        3.88383
C          1.83782        1.14427        5.14706
C          2.05707       -0.10340        5.99363
C          3.49636       -0.17131        6.45966
C          3.43926       -1.30675        7.45981
C          2.02587       -1.19688        8.04074
N          1.31447       -0.16480        7.25473
C          4.37950       -0.32467        5.24765
O          5.31692       -1.11938        5.21720
C          4.18674        0.72183        4.15722
H          1.00589        0.95281       -0.38924
H          0.42342       -0.68493       -0.77145
H          2.01883       -0.43890       -0.02693
H         -0.68045        0.18427        1.28704
H          0.31233       -1.21621        1.68314
H          2.70581        2.05199        3.38580
H          2.10106        2.04414        5.71777
H          0.77769        1.23455        4.88127
H          1.78844       -0.98899        5.40046
H          3.80135        0.75137        6.97355
H          3.57974       -2.27954        6.97412
H          4.20752       -1.20098        8.23242
H          1.50218       -2.15555        7.96061
H          2.04861       -0.91503        9.09852
H          1.38912        0.72683        7.74650
H          4.68499        0.37358        3.24537
H          4.71185        1.62188        4.50000

--Link1--
%chk=JID_5704.chk
%mem=8GB
%nprocshared=4
# B3LYP/6-311++G(d,p) empiricaldispersion=gd3bj scf=xqc pop=npa geom=check

CID_154229346_JID_5704_Energie_neutraal

0 1

--Link1--
%chk=JID_5704.chk
%mem=8GB
%nprocshared=4
# B3LYP/6-311++G(d,p) empiricaldispersion=gd3bj scf=xqc pop=npa geom=check

CID_154229346_JID_5704_Energie_kation

1 2

--Link1--
%chk=JID_5704.chk
%mem=8GB
%nprocshared=4
# B3LYP/6-311++G(d,p) empiricaldispersion=gd3bj scf=xqc pop=npa geom=check

CID_154229346_JID_5704_Energie_anion

-1 2
