%chk=JID_6886.chk
%mem=8GB
%nprocshared=4
# opt freq B3LYP/6-31G(d) empiricaldispersion=gd3bj scf=xqc

CID_69981194_JID_6886_neutraal

0 1
C          0.93864       -0.05902        0.05246
C          1.10598       -0.85612        1.33608
C          0.95911       -0.01373        2.60614
C         -0.38058        0.71367        2.77371
C         -1.60231       -0.20195        2.81040
C         -1.61033       -1.09012        4.04518
O         -1.58191       -0.58656        5.17107
C         -1.56205       -2.59315        3.83306
C         -1.50042       -3.39183        5.14521
C         -2.09060       -4.74241        4.85147
C         -1.89512       -5.88901        5.61261
C         -2.55911       -7.06208        5.24694
C         -3.41905       -7.07782        4.14054
C         -3.62473       -5.91945        3.38858
C         -2.95585       -4.76259        3.75465
S         -3.05007       -3.18818        2.95645
H         -0.08433        0.31227       -0.05872
H          1.15635       -0.69212       -0.81375
H          1.62286        0.79494        0.02804
H          0.39422       -1.68792        1.34175
H          2.10549       -1.30779        1.33780
H          1.13205       -0.66070        3.47477
H          1.75961        0.73676        2.62338
H         -0.33627        1.29910        3.70078
H         -0.50656        1.44062        1.96314
H         -2.51718        0.40126        2.84486
H         -1.65953       -0.80414        1.89994
H         -0.68250       -2.83064        3.22386
H         -0.46166       -3.47973        5.48301
H         -2.07955       -2.92020        5.94836
H         -1.24367       -5.87781        6.48174
H         -2.41491       -7.96891        5.82988
H         -3.93327       -7.99670        3.86938
H         -4.29447       -5.92985        2.53451

--Link1--
%chk=JID_6886.chk
%mem=8GB
%nprocshared=4
# B3LYP/6-311++G(d,p) empiricaldispersion=gd3bj scf=xqc pop=npa geom=check

CID_69981194_JID_6886_Energie_neutraal

0 1

--Link1--
%chk=JID_6886.chk
%mem=8GB
%nprocshared=4
# B3LYP/6-311++G(d,p) empiricaldispersion=gd3bj scf=xqc pop=npa geom=check

CID_69981194_JID_6886_Energie_kation

1 2

--Link1--
%chk=JID_6886.chk
%mem=8GB
%nprocshared=4
# B3LYP/6-311++G(d,p) empiricaldispersion=gd3bj scf=xqc pop=npa geom=check

CID_69981194_JID_6886_Energie_anion

-1 2
