%chk=JID_5989.chk
%mem=8GB
%nprocshared=4
# opt freq B3LYP/6-31G(d) empiricaldispersion=gd3bj scf=xqc

CID_141357462_JID_5989_neutraal

0 1
C          0.94238        0.01825       -0.07967
C         -0.16020       -0.28513        0.61512
C         -1.56981        0.00598        0.21397
O         -2.45640       -0.23633        1.03890
C         -1.89242        0.59861       -1.15151
C         -1.53584       -0.36712       -2.28636
O         -1.56955       -1.59147       -2.19614
N         -1.23422        0.23655       -3.47955
C         -1.11428        1.62162       -3.58858
C         -0.87571        2.19651       -4.83641
C         -0.72153        3.58032       -4.94045
C         -0.79418        4.38147       -3.79972
C         -1.02274        3.80150       -2.55106
C         -1.19262        2.42258       -2.44614
O         -1.36497        1.92092       -1.18520
H          0.93061        0.53087       -1.03422
H          1.91943       -0.24402        0.31693
H         -0.07570       -0.78803        1.57501
H         -2.98695        0.69846       -1.19191
H         -1.07874       -0.36799       -4.27573
H         -0.80783        1.58481       -5.73162
H         -0.53884        4.03552       -5.91117
H         -0.66711        5.45840       -3.88197
H         -1.06760        4.42500       -1.66183

--Link1--
%chk=JID_5989.chk
%mem=8GB
%nprocshared=4
# B3LYP/6-311++G(d,p) empiricaldispersion=gd3bj scf=xqc pop=npa geom=check

CID_141357462_JID_5989_Energie_neutraal

0 1

--Link1--
%chk=JID_5989.chk
%mem=8GB
%nprocshared=4
# B3LYP/6-311++G(d,p) empiricaldispersion=gd3bj scf=xqc pop=npa geom=check

CID_141357462_JID_5989_Energie_kation

1 2

--Link1--
%chk=JID_5989.chk
%mem=8GB
%nprocshared=4
# B3LYP/6-311++G(d,p) empiricaldispersion=gd3bj scf=xqc pop=npa geom=check

CID_141357462_JID_5989_Energie_anion

-1 2
