%chk=JID_6789.chk
%mem=8GB
%nprocshared=4
# opt freq B3LYP/6-31G(d) empiricaldispersion=gd3bj scf=xqc

CID_89265011_JID_6789_neutraal

0 1
C         -1.26300       -1.22900       -0.21900
C          0.23330       -1.28814        0.07679
C          0.97114       -0.08793       -0.51314
C          0.36150        1.23234       -0.04612
C         -1.13445        1.29603       -0.34251
C         -1.88041        0.09410        0.26064
C         -3.34275        0.15124       -0.10857
C         -4.40292        0.17778        0.71622
C         -4.40788        0.13461        2.22657
C         -5.30632       -1.01220        2.72227
C         -5.20329       -1.17662        4.23979
C         -5.31859        0.11358        4.98364
C         -5.12335        1.42677        4.27140
C         -4.88892        1.48209        2.79296
O         -6.43115        0.93477        4.62483
O          2.34305       -0.13930       -0.13817
H         -1.41999       -1.35168       -1.29891
H         -1.76067       -2.07546        0.27040
H          0.65937       -2.21670       -0.32181
H          0.39628       -1.32935        1.16165
H          0.93288       -0.13935       -1.60749
H          0.53303        1.36205        1.03041
H          0.87726        2.06996       -0.53090
H         -1.28256        1.32830       -1.43014
H         -1.54226        2.23191        0.05940
H         -1.75602        0.14658        1.34759
H         -3.55045        0.17987       -1.17949
H         -5.38952        0.23388        0.25297
H         -3.39926       -0.05552        2.60958
H         -5.02521       -1.95821        2.24286
H         -6.35075       -0.81591        2.44514
H         -4.23344       -1.62715        4.48317
H         -5.97307       -1.87416        4.58825
H         -5.07087        0.03222        6.03307
H         -4.75881        2.28984        4.81024
H         -5.81207        1.80772        2.29579
H         -4.13592        2.25142        2.58006
H          2.39290       -0.09445        0.83190

--Link1--
%chk=JID_6789.chk
%mem=8GB
%nprocshared=4
# B3LYP/6-311++G(d,p) empiricaldispersion=gd3bj scf=xqc pop=npa geom=check

CID_89265011_JID_6789_Energie_neutraal

0 1

--Link1--
%chk=JID_6789.chk
%mem=8GB
%nprocshared=4
# B3LYP/6-311++G(d,p) empiricaldispersion=gd3bj scf=xqc pop=npa geom=check

CID_89265011_JID_6789_Energie_kation

1 2

--Link1--
%chk=JID_6789.chk
%mem=8GB
%nprocshared=4
# B3LYP/6-311++G(d,p) empiricaldispersion=gd3bj scf=xqc pop=npa geom=check

CID_89265011_JID_6789_Energie_anion

-1 2
