%chk=JID_5567.chk
%mem=8GB
%nprocshared=4
# opt freq B3LYP/6-31G(d) empiricaldispersion=gd3bj scf=xqc

CID_15307492_JID_5567_neutraal

0 1
C          1.00832        0.00393       -0.09958
O          0.05396        0.82209       -0.76372
C          0.52304        1.95314       -1.37578
C         -0.46542        2.74225       -1.97103
C         -0.08105        3.89966       -2.61619
C          1.24506        4.30158       -2.68160
C          2.23668        3.54040       -2.08881
C          1.86944        2.35351       -1.43979
C          1.31380        5.62871       -3.36166
C         -0.08723        5.61512       -4.01680
O         -0.95213        4.75783       -3.23883
O         -0.08543        5.16373       -5.36780
C          2.49961        5.82940       -4.30581
C          2.48096        7.17290       -4.98139
C          3.36434        8.14912       -4.73813
H          0.47240       -0.83835        0.34853
H          1.50381        0.55126        0.70913
H          1.73773       -0.40420       -0.80690
H         -1.50959        2.45184       -1.92991
H          3.27666        3.85127       -2.10673
H          2.65715        1.76361       -0.98155
H          1.32861        6.38882       -2.56790
H         -0.51457        6.62377       -4.01602
H          0.23145        4.24548       -5.33237
H          3.43461        5.71389       -3.74214
H          2.52418        5.04841       -5.07610
H          1.70525        7.33902       -5.72831
H          3.30472        9.09494       -5.26886
H          4.16409        8.03276       -4.01334

--Link1--
%chk=JID_5567.chk
%mem=8GB
%nprocshared=4
# B3LYP/6-311++G(d,p) empiricaldispersion=gd3bj scf=xqc pop=npa geom=check

CID_15307492_JID_5567_Energie_neutraal

0 1

--Link1--
%chk=JID_5567.chk
%mem=8GB
%nprocshared=4
# B3LYP/6-311++G(d,p) empiricaldispersion=gd3bj scf=xqc pop=npa geom=check

CID_15307492_JID_5567_Energie_kation

1 2

--Link1--
%chk=JID_5567.chk
%mem=8GB
%nprocshared=4
# B3LYP/6-311++G(d,p) empiricaldispersion=gd3bj scf=xqc pop=npa geom=check

CID_15307492_JID_5567_Energie_anion

-1 2
