%chk=JID_4496.chk
%mem=8GB
%nprocshared=4
# opt freq B3LYP/6-31G(d) empiricaldispersion=gd3bj scf=xqc

CID_129798593_JID_4496_neutraal

0 1
C          1.07410       -0.04255        0.05194
C          0.45295       -1.33115        0.48483
C          0.77452       -2.62884        0.09491
C         -0.04193       -3.49863        0.85792
C         -0.86327       -2.71961        1.63555
N         -0.59443       -1.38256        1.40489
C         -1.24365       -0.28613        1.98987
C         -2.24089       -0.31644        2.88538
C          1.80741       -3.02672       -0.85912
N          1.85163       -2.63194       -2.09715
O          0.75698       -1.83302       -2.44672
C          0.86775       -1.40928       -3.74906
C          1.88247       -1.58139       -4.60589
C          2.86250       -3.99780       -0.38959
H          1.35913        0.56352        0.91812
H          0.37625        0.53023       -0.56698
H          1.98508       -0.20983       -0.53057
H         -0.04622       -4.58082        0.83002
H         -1.63137       -3.01546        2.33551
H         -0.88585        0.68520        1.66296
H         -2.66401        0.60992        3.26281
H         -2.66548       -1.23770        3.26784
H         -0.03197       -0.86942       -4.01744
H          1.82740       -1.18264       -5.61204
H          2.78102       -2.11924       -4.32518
H          3.18842       -3.74160        0.62254
H          2.44706       -5.00967       -0.38770
H          3.72819       -3.97231       -1.05770

--Link1--
%chk=JID_4496.chk
%mem=8GB
%nprocshared=4
# B3LYP/6-311++G(d,p) empiricaldispersion=gd3bj scf=xqc pop=npa geom=check

CID_129798593_JID_4496_Energie_neutraal

0 1

--Link1--
%chk=JID_4496.chk
%mem=8GB
%nprocshared=4
# B3LYP/6-311++G(d,p) empiricaldispersion=gd3bj scf=xqc pop=npa geom=check

CID_129798593_JID_4496_Energie_kation

1 2

--Link1--
%chk=JID_4496.chk
%mem=8GB
%nprocshared=4
# B3LYP/6-311++G(d,p) empiricaldispersion=gd3bj scf=xqc pop=npa geom=check

CID_129798593_JID_4496_Energie_anion

-1 2
