%chk=JID_3589.chk
%mem=8GB
%nprocshared=4
# opt freq B3LYP/6-31G(d) empiricaldispersion=gd3bj scf=xqc

CID_63562649_JID_3589_neutraal

0 1
C          0.92222       -0.00362       -0.06275
N          0.28500       -1.29294        0.08787
C         -1.18544       -1.30830        0.07841
C         -1.83710       -0.98065       -1.29734
C         -1.88600        0.50962       -1.62114
C         -3.11765        0.99040       -0.87867
O         -4.00197       -0.13013       -0.77931
C         -3.33939       -1.27097       -1.34178
C         -1.55579       -2.70079        0.57622
C         -2.35213       -2.93993        1.68518
S         -2.60667       -4.60310        1.98526
C         -1.64827       -5.04629        0.64415
C         -1.15758       -3.94807       -0.02504
H          0.44943        0.76520        0.55618
H          0.94099        0.31610       -1.10783
H          1.96518       -0.08095        0.26146
H          0.65112       -1.94605       -0.60039
H         -1.53887       -0.59150        0.83169
H         -1.32298       -1.54676       -2.08355
H         -2.04702        0.63414       -2.69996
H         -1.01009        1.10125       -1.36353
H         -2.87334        1.31875        0.13683
H         -3.62065        1.81219       -1.39636
H         -3.67519       -1.35722       -2.38278
H         -3.66677       -2.17472       -0.82520
H         -2.80935       -2.20662        2.33593
H         -1.49027       -6.09029        0.41018
H         -0.52823       -4.03205       -0.90253

--Link1--
%chk=JID_3589.chk
%mem=8GB
%nprocshared=4
# B3LYP/6-311++G(d,p) empiricaldispersion=gd3bj scf=xqc pop=npa geom=check

CID_63562649_JID_3589_Energie_neutraal

0 1

--Link1--
%chk=JID_3589.chk
%mem=8GB
%nprocshared=4
# B3LYP/6-311++G(d,p) empiricaldispersion=gd3bj scf=xqc pop=npa geom=check

CID_63562649_JID_3589_Energie_kation

1 2

--Link1--
%chk=JID_3589.chk
%mem=8GB
%nprocshared=4
# B3LYP/6-311++G(d,p) empiricaldispersion=gd3bj scf=xqc pop=npa geom=check

CID_63562649_JID_3589_Energie_anion

-1 2
