%chk=JID_7146.chk
%mem=8GB
%nprocshared=4
# opt freq B3LYP/6-31G(d) empiricaldispersion=gd3bj scf=xqc

CID_106232876_JID_7146_neutraal

0 1
C          0.92142       -0.05286        0.03212
C          0.41646        1.32493        0.42951
C          0.92141        2.35643       -0.56489
C          0.41474        2.01175       -1.95589
C         -0.01988        1.71609       -3.14909
N          0.50435        3.70394       -0.23507
C          1.29028        4.82980       -0.37905
O          0.76688        5.92574       -0.56997
C          2.78048        4.71297       -0.32013
N          3.30411        3.83318        0.57713
C          4.65438        3.71008        0.59166
C          5.50558        4.41335       -0.25131
C          4.94077        5.32265       -1.14962
C          3.55465        5.48508       -1.17936
C          6.95374        4.15185       -0.16077
O          7.48950        3.39874        0.62901
O          7.66018        4.82881       -1.08189
H          0.47016       -0.41275       -0.89725
H          0.66233       -0.77653        0.81263
H          2.01076       -0.06543       -0.07922
H         -0.67952        1.31802        0.47569
H          0.77778        1.57103        1.43519
H          2.00906        2.28909       -0.62735
H         -0.37705        1.47731       -4.12437
H         -0.48142        3.90674       -0.33590
H          5.03985        2.99807        1.31864
H          5.56490        5.89937       -1.82739
H          3.08807        6.18033       -1.87065
H          8.58921        4.55502       -0.92469

--Link1--
%chk=JID_7146.chk
%mem=8GB
%nprocshared=4
# B3LYP/6-311++G(d,p) empiricaldispersion=gd3bj scf=xqc pop=npa geom=check

CID_106232876_JID_7146_Energie_neutraal

0 1

--Link1--
%chk=JID_7146.chk
%mem=8GB
%nprocshared=4
# B3LYP/6-311++G(d,p) empiricaldispersion=gd3bj scf=xqc pop=npa geom=check

CID_106232876_JID_7146_Energie_kation

1 2

--Link1--
%chk=JID_7146.chk
%mem=8GB
%nprocshared=4
# B3LYP/6-311++G(d,p) empiricaldispersion=gd3bj scf=xqc pop=npa geom=check

CID_106232876_JID_7146_Energie_anion

-1 2
