%chk=JID_10381.chk
%mem=8GB
%nprocshared=4
# opt freq B3LYP/6-31G(d) empiricaldispersion=gd3bj scf=xqc

CID_102704333_JID_10381_neutraal

0 1
C          1.08058        0.04562       -0.03777
N         -0.11332       -0.78300        0.05753
C         -1.33995        0.00420        0.17614
C         -1.75727        0.66701       -1.11573
C         -1.50200        2.02665       -1.33442
C         -1.87535        2.63750       -2.53711
C         -2.47697        1.88606       -3.55329
C         -2.73127        0.52856       -3.34181
C         -2.37487       -0.07496       -2.13087
S         -2.92117        2.71859       -5.06073
O         -3.81810        3.79682       -4.69168
O         -1.69161        2.96670       -5.78444
N         -3.83971        1.64377       -5.99565
C         -3.16633        0.60824       -6.80240
C         -3.98777        0.35124       -8.06492
C         -5.43480       -0.00153       -7.72566
C         -6.06260        1.07179       -6.83849
C         -5.22110        1.32382       -5.58916
O         -1.55259        3.95232       -2.74078
C         -2.32259        4.81844       -1.90576
H          1.16669        0.72101        0.81958
H          1.10363        0.63144       -0.96155
H          1.96584       -0.59820       -0.03520
H         -0.17326       -1.38321       -0.76310
H         -2.14865       -0.66702        0.49166
H         -1.25282        0.74374        0.98225
H         -0.98703        2.60922       -0.57390
H         -3.19789       -0.09070       -4.09489
H         -2.57530       -1.13518       -1.98440
H         -3.06806       -0.32052       -6.23327
H         -2.16263        0.92386       -7.10085
H         -3.53390       -0.46051       -8.64414
H         -3.97449        1.24712       -8.69847
H         -6.01706       -0.10881       -8.64752
H         -5.46563       -0.96883       -7.20949
H         -6.15498        2.00338       -7.41099
H         -7.07500        0.76884       -6.54922
H         -5.67141        2.14567       -5.02488
H         -5.23200        0.43584       -4.94939
H         -2.24445        5.83107       -2.31232
H         -3.38214        4.53840       -1.89246
H         -1.91914        4.83053       -0.88819

--Link1--
%chk=JID_10381.chk
%mem=8GB
%nprocshared=4
# B3LYP/6-311++G(d,p) empiricaldispersion=gd3bj scf=xqc pop=npa geom=check

CID_102704333_JID_10381_Energie_neutraal

0 1

--Link1--
%chk=JID_10381.chk
%mem=8GB
%nprocshared=4
# B3LYP/6-311++G(d,p) empiricaldispersion=gd3bj scf=xqc pop=npa geom=check

CID_102704333_JID_10381_Energie_kation

1 2

--Link1--
%chk=JID_10381.chk
%mem=8GB
%nprocshared=4
# B3LYP/6-311++G(d,p) empiricaldispersion=gd3bj scf=xqc pop=npa geom=check

CID_102704333_JID_10381_Energie_anion

-1 2
