%chk=JID_1066.chk
%mem=8GB
%nprocshared=4
# opt freq B3LYP/6-31G(d) empiricaldispersion=gd3bj scf=xqc

CID_53835919_JID_1066_neutraal

0 1
C          1.05558        0.00108       -0.08312
C          0.43743       -1.23609        0.55287
C          1.04357       -1.61083        1.91785
N          0.33292       -1.07633        3.11387
C          0.76377       -1.75486        4.39276
C          2.27906       -1.64756        4.67604
C         -0.00136       -1.18859        5.61589
C          0.38612       -3.25915        4.34465
N          0.55794        0.37103        3.16102
C         -0.66393        1.10576        2.80006
C         -1.70923        1.17536        3.90238
H          0.61552        0.17137       -1.07115
H          2.13432       -0.13018       -0.21704
H          0.89589        0.90341        0.50929
H         -0.65092       -1.13197        0.62340
H          0.61061       -2.07404       -0.13531
H          0.99699       -2.70315        1.94044
H          2.10846       -1.34620        1.93437
H          2.61152       -0.60615        4.73851
H          2.52962       -2.12312        5.63198
H          2.87727       -2.14908        3.90827
H         -1.08460       -1.27780        5.48303
H          0.25308       -1.74326        6.52777
H          0.24008       -0.14144        5.82029
H         -0.65777       -3.39551        4.03870
H          1.02175       -3.83326        3.66339
H          0.49977       -3.72619        5.33074
H          0.89343        0.70545        4.06402
H         -0.35936        2.13138        2.56035
H         -1.12384        0.70947        1.88939
H         -1.28482        1.56522        4.83284
H         -2.52176        1.84571        3.60269
H         -2.15018        0.19385        4.09625

--Link1--
%chk=JID_1066.chk
%mem=8GB
%nprocshared=4
# B3LYP/6-311++G(d,p) empiricaldispersion=gd3bj scf=xqc pop=npa geom=check

CID_53835919_JID_1066_Energie_neutraal

0 1

--Link1--
%chk=JID_1066.chk
%mem=8GB
%nprocshared=4
# B3LYP/6-311++G(d,p) empiricaldispersion=gd3bj scf=xqc pop=npa geom=check

CID_53835919_JID_1066_Energie_kation

1 2

--Link1--
%chk=JID_1066.chk
%mem=8GB
%nprocshared=4
# B3LYP/6-311++G(d,p) empiricaldispersion=gd3bj scf=xqc pop=npa geom=check

CID_53835919_JID_1066_Energie_anion

-1 2
