%chk=JID_9673.chk
%mem=8GB
%nprocshared=4
# opt freq B3LYP/6-31G(d) empiricaldispersion=gd3bj scf=xqc

CID_23298310_JID_9673_neutraal

0 1
C          1.05509        0.06641       -0.05055
C          2.03440        1.17274        0.28549
O          2.86426        1.52059       -0.55562
N          1.83794        1.78785        1.51949
C          2.92954        2.35028        2.27442
C          2.69002        3.13600        3.41781
C          3.74147        3.69334        4.15446
C          5.05813        3.47172        3.76947
C          5.32240        2.68873        2.65175
C          4.26976        2.13175        1.91498
C          0.54031        1.94783        1.99284
O          0.12382        1.43161        3.03093
C         -0.35390        2.80572        1.10386
C         -0.67235        4.13130        1.74989
C          0.12825        5.25466        1.49850
C         -0.14433        6.47048        2.12722
C         -1.21440        6.57410        3.01387
C         -2.01114        5.46139        3.27612
C         -1.74012        4.24402        2.65032
H          0.20016        0.47808       -0.59216
H          0.71368       -0.45141        0.84988
H          1.55923       -0.67136       -0.68225
H          1.68113        3.34133        3.77006
H          3.52435        4.29908        5.03094
H          5.87539        3.90358        4.34093
H          6.34997        2.50551        2.34695
H          4.53974        1.51876        1.05916
H          0.10891        2.98389        0.12653
H         -1.27491        2.24547        0.90261
H          0.97428        5.19203        0.81661
H          0.48126        7.33697        1.92817
H         -1.42463        7.52076        3.50470
H         -2.84068        5.53920        3.97426
H         -2.36051        3.37969        2.88001

--Link1--
%chk=JID_9673.chk
%mem=8GB
%nprocshared=4
# B3LYP/6-311++G(d,p) empiricaldispersion=gd3bj scf=xqc pop=npa geom=check

CID_23298310_JID_9673_Energie_neutraal

0 1

--Link1--
%chk=JID_9673.chk
%mem=8GB
%nprocshared=4
# B3LYP/6-311++G(d,p) empiricaldispersion=gd3bj scf=xqc pop=npa geom=check

CID_23298310_JID_9673_Energie_kation

1 2

--Link1--
%chk=JID_9673.chk
%mem=8GB
%nprocshared=4
# B3LYP/6-311++G(d,p) empiricaldispersion=gd3bj scf=xqc pop=npa geom=check

CID_23298310_JID_9673_Energie_anion

-1 2
