%chk=JID_8073.chk
%mem=8GB
%nprocshared=4
# opt freq B3LYP/6-31G(d) empiricaldispersion=gd3bj scf=xqc

CID_150095854_JID_8073_neutraal

0 1
C          1.02749        0.08868       -0.03715
C         -0.02639        1.14761        0.35140
C         -1.23064        1.08295       -0.62419
C         -0.94722        1.79194       -1.91694
C         -0.07527        2.81074       -1.97670
C          0.58619        3.33387       -0.78395
C          0.62192        2.52466        0.30107
C          1.25800        4.74271       -0.78986
C          1.06661        5.55823       -2.11627
C         -0.35455        6.06968       -2.36792
C         -0.88701        6.86274       -1.18335
C         -0.76397        6.07409        0.11331
C          0.67973        5.62964        0.35753
C          2.81133        4.58254       -0.61960
N          3.21071        4.21148        0.75182
N          3.76785        5.09969        1.42076
N          4.27224        5.91905        2.03160
C         -0.51942        0.85498        1.77840
H          1.40575        0.24002       -1.05447
H          0.60555       -0.92171        0.01187
H          1.88897        0.11978        0.64065
H         -1.48411        0.03641       -0.83366
H         -2.12455        1.53781       -0.17728
H         -1.45288        1.44749       -2.81326
H          0.13029        3.25165       -2.94482
H          1.14558        2.83673        1.20045
H          1.71566        6.44542       -2.08148
H          1.41841        4.98518       -2.98259
H         -1.03846        5.24404       -2.58465
H         -0.35347        6.70767       -3.25978
H         -1.93464        7.13172       -1.35886
H         -0.32857        7.80290       -1.09386
H         -1.43012        5.20397        0.08535
H         -1.09725        6.70046        0.94881
H          0.72332        5.11660        1.32516
H          1.30063        6.52971        0.46596
H          3.17987        3.80620       -1.30204
H          3.32571        5.50867       -0.91134
H         -1.01103       -0.12294        1.83310
H          0.31110        0.84793        2.49462
H         -1.23827        1.61053        2.11622

--Link1--
%chk=JID_8073.chk
%mem=8GB
%nprocshared=4
# B3LYP/6-311++G(d,p) empiricaldispersion=gd3bj scf=xqc pop=npa geom=check

CID_150095854_JID_8073_Energie_neutraal

0 1

--Link1--
%chk=JID_8073.chk
%mem=8GB
%nprocshared=4
# B3LYP/6-311++G(d,p) empiricaldispersion=gd3bj scf=xqc pop=npa geom=check

CID_150095854_JID_8073_Energie_kation

1 2

--Link1--
%chk=JID_8073.chk
%mem=8GB
%nprocshared=4
# B3LYP/6-311++G(d,p) empiricaldispersion=gd3bj scf=xqc pop=npa geom=check

CID_150095854_JID_8073_Energie_anion

-1 2
