%chk=JID_6576.chk
%mem=8GB
%nprocshared=4
# opt freq B3LYP/6-31G(d) empiricaldispersion=gd3bj scf=xqc

CID_117181439_JID_6576_neutraal

0 1
C          1.07912        0.05861       -0.01747
C          0.93680        1.41808       -0.69408
C          1.97525        1.61996       -1.79229
O         -0.38708        1.72612       -1.13803
C         -1.12624        0.72662       -1.84245
C         -0.69015        0.49953       -3.25792
C         -0.32726       -0.73374       -3.75785
S          0.11904       -0.67839       -5.39447
C         -0.17573        1.02093       -5.50947
C         -0.01550        1.84951       -6.65344
C         -0.30517        3.22152       -6.50474
C         -0.74428        3.74619       -5.29895
C         -0.90171        2.91304       -4.19359
C         -0.61522        1.52713       -4.27861
C          0.47384        1.34885       -7.99142
N          1.92364        1.45495       -8.09897
H          0.98953       -0.76264       -0.73586
H          0.30031       -0.08004        0.73957
H          2.05598       -0.03255        0.46855
H          1.14690        2.17617        0.07047
H          1.94341        0.82091       -2.53723
H          1.80752        2.56670       -2.31576
H          2.98565        1.63106       -1.37027
H         -1.15672       -0.20584       -1.26922
H         -2.16392        1.08180       -1.87154
H         -0.29480       -1.67612       -3.22811
H         -0.18213        3.89245       -7.35313
H         -0.95936        4.80778       -5.20990
H         -1.23295        3.33826       -3.24844
H          0.16986        0.30919       -8.14974
H          0.00294        1.92779       -8.79500
H          2.20900        1.20708       -9.04328
H          2.20189        2.42280       -7.95114

--Link1--
%chk=JID_6576.chk
%mem=8GB
%nprocshared=4
# B3LYP/6-311++G(d,p) empiricaldispersion=gd3bj scf=xqc pop=npa geom=check

CID_117181439_JID_6576_Energie_neutraal

0 1

--Link1--
%chk=JID_6576.chk
%mem=8GB
%nprocshared=4
# B3LYP/6-311++G(d,p) empiricaldispersion=gd3bj scf=xqc pop=npa geom=check

CID_117181439_JID_6576_Energie_kation

1 2

--Link1--
%chk=JID_6576.chk
%mem=8GB
%nprocshared=4
# B3LYP/6-311++G(d,p) empiricaldispersion=gd3bj scf=xqc pop=npa geom=check

CID_117181439_JID_6576_Energie_anion

-1 2
