%chk=JID_5401.chk
%mem=8GB
%nprocshared=4
# opt freq B3LYP/6-31G(d) empiricaldispersion=gd3bj scf=xqc

CID_61554743_JID_5401_neutraal

0 1
C         -1.10600       -0.72000       -0.20700
C          0.20369       -1.02545        0.49049
O          0.96075        0.19131        0.50383
C          0.10970        1.25680        0.06306
C         -1.32029        0.74160        0.14146
C         -2.25476        1.50968       -0.78845
O         -3.62089        1.48233       -0.36955
C         -4.30721        0.26389       -0.59687
C         -4.37261       -0.26544       -2.03780
O         -3.86373       -1.35950       -2.29710
C         -5.04503        0.57772       -3.02179
C         -5.62439        1.82530       -2.87068
C         -6.18112        2.32261       -4.08594
C         -6.01068        1.44121       -5.12826
S         -5.18427        0.02753       -4.64198
H         -0.98672       -0.84613       -1.28994
H         -1.90275       -1.38773        0.12700
H          0.03825       -1.32708        1.53020
H          0.77432       -1.81019       -0.01407
H          0.40051        1.51083       -0.96275
H          0.27072        2.13496        0.69550
H         -1.67637        0.80645        1.17799
H         -1.97553        2.56965       -0.76901
H         -2.16083        1.18766       -1.83150
H         -3.89742       -0.51555        0.05169
H         -5.34024        0.40222       -0.25534
H         -5.64869        2.37315       -1.93527
H         -6.67887        3.27941       -4.18933
H         -6.32970        1.55805       -6.15517

--Link1--
%chk=JID_5401.chk
%mem=8GB
%nprocshared=4
# B3LYP/6-311++G(d,p) empiricaldispersion=gd3bj scf=xqc pop=npa geom=check

CID_61554743_JID_5401_Energie_neutraal

0 1

--Link1--
%chk=JID_5401.chk
%mem=8GB
%nprocshared=4
# B3LYP/6-311++G(d,p) empiricaldispersion=gd3bj scf=xqc pop=npa geom=check

CID_61554743_JID_5401_Energie_kation

1 2

--Link1--
%chk=JID_5401.chk
%mem=8GB
%nprocshared=4
# B3LYP/6-311++G(d,p) empiricaldispersion=gd3bj scf=xqc pop=npa geom=check

CID_61554743_JID_5401_Energie_anion

-1 2
