%chk=JID_4633.chk
%mem=8GB
%nprocshared=4
# opt freq B3LYP/6-31G(d) empiricaldispersion=gd3bj scf=xqc

CID_79370422_JID_4633_neutraal

0 1
C          1.06506       -0.05852       -0.04840
C          0.80378       -1.30233       -0.89705
C          1.35518       -2.56453       -0.23442
C          0.42717       -3.65779       -0.73438
C         -0.91997       -2.96287       -0.78868
N         -0.64798       -1.53827       -1.02246
C         -1.24714       -1.04305       -2.27029
C         -0.65900       -1.59842       -3.58395
C         -1.71497       -1.78321       -4.63703
C         -1.44378       -2.67094       -5.82433
C         -2.41817       -3.11053       -4.76714
C          2.80653       -2.76926       -0.57507
O          3.74988       -2.45426        0.13347
O          3.02925       -3.28616       -1.79660
H          0.61095       -0.14493        0.94518
H          0.65376        0.83554       -0.52934
H          2.14012        0.09986        0.08656
H          1.27827       -1.15948       -1.87550
H          1.26938       -2.51364        0.85943
H          0.41638       -4.52390       -0.06507
H          0.70359       -4.01495       -1.73256
H         -1.42032       -3.05446        0.18264
H         -1.57962       -3.42650       -1.53067
H         -2.32705       -1.23732       -2.22667
H         -1.16275        0.05144       -2.28938
H          0.10058       -0.90296       -3.96154
H         -0.14638       -2.55206       -3.41821
H         -2.28679       -0.87925       -4.81606
H         -1.84395       -2.37209       -6.78667
H         -0.49107       -3.18540       -5.88305
H         -2.12132       -3.92624       -4.11689
H         -3.47370       -3.10634       -5.01367
H          4.00657       -3.32487       -1.86603

--Link1--
%chk=JID_4633.chk
%mem=8GB
%nprocshared=4
# B3LYP/6-311++G(d,p) empiricaldispersion=gd3bj scf=xqc pop=npa geom=check

CID_79370422_JID_4633_Energie_neutraal

0 1

--Link1--
%chk=JID_4633.chk
%mem=8GB
%nprocshared=4
# B3LYP/6-311++G(d,p) empiricaldispersion=gd3bj scf=xqc pop=npa geom=check

CID_79370422_JID_4633_Energie_kation

1 2

--Link1--
%chk=JID_4633.chk
%mem=8GB
%nprocshared=4
# B3LYP/6-311++G(d,p) empiricaldispersion=gd3bj scf=xqc pop=npa geom=check

CID_79370422_JID_4633_Energie_anion

-1 2
