%chk=JID_8024.chk
%mem=8GB
%nprocshared=4
# opt freq B3LYP/6-31G(d) empiricaldispersion=gd3bj scf=xqc

CID_113855799_JID_8024_neutraal

0 1
C          0.91434        0.04954        0.01445
C          0.00427        0.86974       -0.89468
C          0.59003        1.06990       -2.30062
C          0.70559       -0.18273       -3.18910
C         -0.58371       -0.90984       -3.52538
C          0.12616        2.31093       -3.08697
O          0.99071        2.91117       -3.74046
N         -1.18661        2.75777       -3.09724
C         -2.35557        1.97449       -2.71285
C         -3.04335        2.56814       -1.52116
C         -4.31220        3.37247       -1.66700
C         -4.36404        1.99625       -1.06815
C         -1.46950        3.99783       -3.84333
C         -0.79378        5.27044       -3.28591
C         -1.10314        5.55211       -1.82207
C         -0.78066        7.02991       -1.66230
C         -0.80262        7.59545       -3.07581
N         -1.27289        6.50945       -3.94436
H          1.04448       -0.96813       -0.36519
H          0.47767       -0.02130        1.01595
H          1.90083        0.51396        0.11019
H         -0.96413        0.36621       -0.91900
H         -0.15528        1.84761       -0.42530
H          1.64127        1.33766       -2.09456
H          1.19189        0.09330       -4.13376
H          1.38117       -0.89833       -2.70462
H         -1.23896       -0.28990       -4.14318
H         -0.35889       -1.81356       -4.10209
H         -1.12153       -1.22136       -2.62599
H         -3.02570        1.91887       -3.58001
H         -2.08534        0.94907       -2.48880
H         -2.34693        2.84869       -0.73911
H         -4.45428        4.21909       -1.00436
H         -4.73722        3.51006       -2.65471
H         -4.82152        1.20650       -1.65363
H         -4.54156        1.91337       -0.00143
H         -1.15370        3.84045       -4.88279
H         -2.55495        4.15177       -3.87093
H          0.29192        5.21161       -3.42607
H         -2.16438        5.39027       -1.60273
H         -0.51481        4.93109       -1.13956
H         -1.51459        7.51945       -1.01379
H          0.21052        7.16326       -1.21481
H         -1.45371        8.47174       -3.15501
H          0.20418        7.90210       -3.38112
H         -2.29317        6.51090       -3.93593

--Link1--
%chk=JID_8024.chk
%mem=8GB
%nprocshared=4
# B3LYP/6-311++G(d,p) empiricaldispersion=gd3bj scf=xqc pop=npa geom=check

CID_113855799_JID_8024_Energie_neutraal

0 1

--Link1--
%chk=JID_8024.chk
%mem=8GB
%nprocshared=4
# B3LYP/6-311++G(d,p) empiricaldispersion=gd3bj scf=xqc pop=npa geom=check

CID_113855799_JID_8024_Energie_kation

1 2

--Link1--
%chk=JID_8024.chk
%mem=8GB
%nprocshared=4
# B3LYP/6-311++G(d,p) empiricaldispersion=gd3bj scf=xqc pop=npa geom=check

CID_113855799_JID_8024_Energie_anion

-1 2
