%chk=JID_10794.chk
%mem=8GB
%nprocshared=4
# opt freq B3LYP/6-31G(d) empiricaldispersion=gd3bj scf=xqc

CID_115619560_JID_10794_neutraal

0 1
C          1.09209        0.00239        0.03891
C          0.78008        0.75137        1.32479
C          1.30674        2.13753        1.32164
N          2.61787        2.41056        1.31870
O          2.65489        3.80317        1.33279
C          1.35686        4.22668        1.35752
N          0.48775        3.23899        1.33128
C          1.13570        5.68762        1.37367
N          1.34489        6.22494        2.71285
C          0.33960        6.43628        3.62408
C          0.90287        6.95530        4.76586
C          2.30126        7.07438        4.54446
C          2.55897        6.62255        3.24557
C          3.85587        6.61020        2.70434
C          4.91029        7.05913        3.50573
C          4.66865        7.50934        4.80719
C          3.37065        7.52738        5.34266
N          5.79218        7.97065        5.63285
O          5.54562        8.34525        6.78817
O          6.92357        7.96128        5.12561
H          0.67658        0.52183       -0.83138
H          0.66276       -1.00396        0.07236
H          2.17234       -0.09588       -0.11298
H         -0.30654        0.77523        1.46902
H          1.19955        0.20464        2.17736
H          1.81053        6.20754        0.68638
H          0.10959        5.92762        1.07419
H         -0.68997        6.19006        3.39483
H          0.36655        7.21780        5.66895
H          4.05442        6.25262        1.69810
H          5.91878        7.04336        3.09512
H          3.17567        7.87571        6.35343

--Link1--
%chk=JID_10794.chk
%mem=8GB
%nprocshared=4
# B3LYP/6-311++G(d,p) empiricaldispersion=gd3bj scf=xqc pop=npa geom=check

CID_115619560_JID_10794_Energie_neutraal

0 1

--Link1--
%chk=JID_10794.chk
%mem=8GB
%nprocshared=4
# B3LYP/6-311++G(d,p) empiricaldispersion=gd3bj scf=xqc pop=npa geom=check

CID_115619560_JID_10794_Energie_kation

1 2

--Link1--
%chk=JID_10794.chk
%mem=8GB
%nprocshared=4
# B3LYP/6-311++G(d,p) empiricaldispersion=gd3bj scf=xqc pop=npa geom=check

CID_115619560_JID_10794_Energie_anion

-1 2
