%chk=JID_6495.chk
%mem=8GB
%nprocshared=4
# opt freq B3LYP/6-31G(d) empiricaldispersion=gd3bj scf=xqc

CID_82127858_JID_6495_neutraal

0 1
C          2.49200        0.00400       -0.01400
C          1.00317       -0.07528       -0.18087
C          0.33991       -1.30311       -0.05101
C         -1.04629       -1.39912       -0.24448
C         -1.76645       -0.24186       -0.56707
C         -1.11213        0.98116       -0.71046
C          0.26743        1.06311       -0.52609
C         -1.75424       -2.73076       -0.10540
C         -1.83537       -3.59798       -1.38763
C         -0.44503       -4.06344       -1.84987
C         -2.63122       -4.86088       -1.10977
O         -3.31954       -5.47710       -1.90876
O         -2.44273       -5.37772        0.12231
C         -2.57553       -2.80790       -2.45224
O         -3.70623       -2.35349       -2.34419
O         -1.88158       -2.58637       -3.58512
H          2.84233       -0.73122        0.71807
H          2.98624       -0.18615       -0.97164
H          2.79264        0.99222        0.34966
H          0.91231       -2.19304        0.20466
H         -2.84480       -0.28335       -0.71135
H         -1.67941        1.87198       -0.96747
H          0.76420        2.02271       -0.64904
H         -1.25272       -3.28752        0.69875
H         -2.76669       -2.54340        0.28126
H          0.08683       -4.58360       -1.04473
H         -0.52160       -4.76492       -2.68987
H          0.18141       -3.23041       -2.18507
H         -2.98159       -6.19830        0.11999
H         -2.49219       -2.05878       -4.14191

--Link1--
%chk=JID_6495.chk
%mem=8GB
%nprocshared=4
# B3LYP/6-311++G(d,p) empiricaldispersion=gd3bj scf=xqc pop=npa geom=check

CID_82127858_JID_6495_Energie_neutraal

0 1

--Link1--
%chk=JID_6495.chk
%mem=8GB
%nprocshared=4
# B3LYP/6-311++G(d,p) empiricaldispersion=gd3bj scf=xqc pop=npa geom=check

CID_82127858_JID_6495_Energie_kation

1 2

--Link1--
%chk=JID_6495.chk
%mem=8GB
%nprocshared=4
# B3LYP/6-311++G(d,p) empiricaldispersion=gd3bj scf=xqc pop=npa geom=check

CID_82127858_JID_6495_Energie_anion

-1 2
