%chk=JID_6677.chk
%mem=8GB
%nprocshared=4
# opt freq B3LYP/6-31G(d) empiricaldispersion=gd3bj scf=xqc

CID_83079907_JID_6677_neutraal

0 1
C          0.90699        0.02630        0.02566
C          0.18030        1.35308        0.20437
C          0.69301        2.45794       -0.74318
C          0.46016        2.14819       -2.22651
N          0.18799        3.80474       -0.35539
C          1.23030        4.76397        0.02609
C          2.07990        5.21325       -1.15706
C         -1.19276        4.04477       -0.42186
O         -1.93484        3.16344       -0.87609
C         -1.84839        5.38539        0.09852
C         -1.39837        6.66087       -0.61454
C         -1.50832        7.72786        0.45852
C         -1.14788        6.99874        1.73898
N         -1.51623        5.59492        1.54296
C         -3.40693        5.24651        0.09374
C         -4.07869        5.28852       -1.27738
H          0.71043       -0.40791       -0.95894
H          0.56657       -0.69183        0.77867
H          1.98823        0.15022        0.14185
H         -0.89249        1.18029        0.07020
H          0.31439        1.68354        1.24222
H          1.78248        2.48539       -0.60866
H         -0.58199        1.89603       -2.44166
H          0.73332        3.00460       -2.85201
H          1.07285        1.29913       -2.54639
H          0.81334        5.64459        0.49806
H          1.86361        4.28632        0.78312
H          1.46034        5.62163       -1.96120
H          2.78786        5.98564       -0.84051
H          2.65874        4.38427       -1.57549
H         -0.37079        6.60832       -0.97500
H         -1.99970        6.92175       -1.48872
H         -0.84794        8.57806        0.26340
H         -2.53717        8.10337        0.51120
H         -0.07309        7.08230        1.93251
H         -1.67021        7.42229        2.60216
H         -0.76715        4.97018        1.83623
H         -3.68853        4.30347        0.58272
H         -3.86492        6.04025        0.69999
H         -3.60696        4.61514       -1.99681
H         -5.12906        4.99309       -1.18160
H         -4.06973        6.29942       -1.69500

--Link1--
%chk=JID_6677.chk
%mem=8GB
%nprocshared=4
# B3LYP/6-311++G(d,p) empiricaldispersion=gd3bj scf=xqc pop=npa geom=check

CID_83079907_JID_6677_Energie_neutraal

0 1

--Link1--
%chk=JID_6677.chk
%mem=8GB
%nprocshared=4
# B3LYP/6-311++G(d,p) empiricaldispersion=gd3bj scf=xqc pop=npa geom=check

CID_83079907_JID_6677_Energie_kation

1 2

--Link1--
%chk=JID_6677.chk
%mem=8GB
%nprocshared=4
# B3LYP/6-311++G(d,p) empiricaldispersion=gd3bj scf=xqc pop=npa geom=check

CID_83079907_JID_6677_Energie_anion

-1 2
