%chk=JID_4774.chk
%mem=8GB
%nprocshared=4
# opt freq B3LYP/6-31G(d) empiricaldispersion=gd3bj scf=xqc

CID_65679016_JID_4774_neutraal

0 1
C         -0.38500       -1.09500       -0.00200
C          0.83367       -0.98305       -0.64034
N          0.86164        0.31643       -1.09130
C         -0.29557        0.92162       -0.69650
N         -1.06320        0.09598       -0.02458
C          1.92653       -1.96764       -0.82595
N          3.04054       -1.33622       -1.49910
C          4.23803       -0.91896       -1.01186
O          5.02302       -0.37685       -1.79129
C          4.57627       -1.06449        0.45477
C          4.18675        0.18356        1.23485
C          2.83459        0.03136        1.86770
O          2.40959       -0.96345        2.43112
O          2.08234        1.13999        1.74631
H         -0.79762       -1.96447        0.49510
H          1.62502        0.75540       -1.58939
H         -0.51499        1.95804       -0.91700
H          2.23324       -2.39564        0.12937
H          1.58479       -2.78465       -1.46983
H          2.96520       -1.22677       -2.50336
H          4.16178       -1.98734        0.86712
H          5.66660       -1.18590        0.50185
H          4.89722        0.35609        2.05125
H          4.19772        1.07095        0.59173
H          1.20221        0.88650        2.10529

--Link1--
%chk=JID_4774.chk
%mem=8GB
%nprocshared=4
# B3LYP/6-311++G(d,p) empiricaldispersion=gd3bj scf=xqc pop=npa geom=check

CID_65679016_JID_4774_Energie_neutraal

0 1

--Link1--
%chk=JID_4774.chk
%mem=8GB
%nprocshared=4
# B3LYP/6-311++G(d,p) empiricaldispersion=gd3bj scf=xqc pop=npa geom=check

CID_65679016_JID_4774_Energie_kation

1 2

--Link1--
%chk=JID_4774.chk
%mem=8GB
%nprocshared=4
# B3LYP/6-311++G(d,p) empiricaldispersion=gd3bj scf=xqc pop=npa geom=check

CID_65679016_JID_4774_Energie_anion

-1 2
