%chk=JID_7040.chk
%mem=8GB
%nprocshared=4
# opt freq B3LYP/6-31G(d) empiricaldispersion=gd3bj scf=xqc

CID_145408378_JID_7040_neutraal

0 1
C          0.96296       -0.04723       -0.07999
C          0.38828        1.32680       -0.20849
C         -0.33213        1.84198       -1.21642
C         -0.67333        1.17450       -2.44991
C         -1.54307        1.57977       -3.38905
C         -2.44129        2.73520       -3.39096
C         -2.70134        3.30019       -4.58881
C         -3.20701        3.20709       -2.21506
C         -4.12302        2.43976       -1.57111
C         -4.48717        1.07823       -2.01779
C         -3.95061       -0.04936       -1.37832
C         -4.28478       -1.33368       -1.81150
C         -5.15812       -1.50232       -2.88485
C         -5.69842       -0.38884       -3.52690
C         -5.36502        0.89692       -3.09629
S         -5.01133        2.93180       -0.14631
S         -2.85725        4.86758       -1.72768
H          0.62459       -0.49810        0.85851
H          2.05554        0.00932       -0.05523
H          0.67370       -0.72055       -0.88971
H          0.58006        1.97638        0.64520
H         -0.66335        2.87154       -1.10871
H         -0.13999        0.24937       -2.65873
H         -1.62715        0.94664       -4.27393
H         -3.40469        4.12092       -4.69561
H         -2.21141        2.96847       -5.49925
H         -3.26256        0.07000       -0.54403
H         -3.86306       -2.20099       -1.31058
H         -5.41948       -2.50273       -3.22005
H         -6.38119       -0.52105       -4.36208
H         -5.79447        1.75708       -3.60452
H         -4.06631        3.71091        0.40087
H         -4.04480        5.14916       -1.17108

--Link1--
%chk=JID_7040.chk
%mem=8GB
%nprocshared=4
# B3LYP/6-311++G(d,p) empiricaldispersion=gd3bj scf=xqc pop=npa geom=check

CID_145408378_JID_7040_Energie_neutraal

0 1

--Link1--
%chk=JID_7040.chk
%mem=8GB
%nprocshared=4
# B3LYP/6-311++G(d,p) empiricaldispersion=gd3bj scf=xqc pop=npa geom=check

CID_145408378_JID_7040_Energie_kation

1 2

--Link1--
%chk=JID_7040.chk
%mem=8GB
%nprocshared=4
# B3LYP/6-311++G(d,p) empiricaldispersion=gd3bj scf=xqc pop=npa geom=check

CID_145408378_JID_7040_Energie_anion

-1 2
