%chk=JID_8407.chk
%mem=8GB
%nprocshared=4
# opt freq B3LYP/6-31G(d) empiricaldispersion=gd3bj scf=xqc

CID_81988923_JID_8407_neutraal

0 1
C          0.91837       -0.03111        0.04867
C          0.96808       -0.19860        1.56343
N          1.77683        0.85617        2.19271
C          1.09378        1.40950        3.38110
C          0.82869        0.43616        4.53012
C          3.19055        0.48759        2.46833
C          4.06574        1.75773        2.49802
C          4.38239        2.00833        1.02715
N          4.44831        0.68125        0.44167
C          3.95869       -0.31209        1.38512
C          4.82639        0.32651       -0.83007
O          4.80132       -0.84887       -1.20116
C          5.28235        1.42319       -1.77973
C          4.38195        1.47848       -3.02714
C          2.96335        2.04454       -2.72598
C          2.93603        3.54184       -2.39562
C          1.98687        1.76212       -3.87418
N          5.07021        2.23680       -4.08451
H          0.57373        0.97221       -0.22437
H          0.21275       -0.75077       -0.38010
H          1.88355       -0.20303       -0.42767
H         -0.07646       -0.13481        1.89623
H          1.30664       -1.20237        1.84541
H          1.65084        2.26646        3.77438
H          0.13334        1.83263        3.05810
H          1.75617        0.07380        4.98189
H          0.26036        0.94353        5.31712
H          0.24054       -0.42879        4.20920
H          3.25839       -0.06774        3.40900
H          4.99375        1.54054        3.04340
H          3.61407        2.63213        2.97271
H          3.57985        2.56273        0.53087
H          5.32853        2.54012        0.89616
H          4.84482       -0.78126        1.83255
H          3.39340       -1.10994        0.89949
H          5.35118        2.39876       -1.29658
H          6.30893        1.15693       -2.06624
H          4.26200        0.45447       -3.40365
H          2.57308        1.51739       -1.84913
H          3.19513        4.15462       -3.26524
H          1.93196        3.84087       -2.07430
H          3.62435        3.79342       -1.58492
H          1.95640        0.69201       -4.10437
H          0.97176        2.06864       -3.59817
H          2.26031        2.30187       -4.78615
H          4.50526        2.23386       -4.93247
H          5.17821        3.21157       -3.81201

--Link1--
%chk=JID_8407.chk
%mem=8GB
%nprocshared=4
# B3LYP/6-311++G(d,p) empiricaldispersion=gd3bj scf=xqc pop=npa geom=check

CID_81988923_JID_8407_Energie_neutraal

0 1

--Link1--
%chk=JID_8407.chk
%mem=8GB
%nprocshared=4
# B3LYP/6-311++G(d,p) empiricaldispersion=gd3bj scf=xqc pop=npa geom=check

CID_81988923_JID_8407_Energie_kation

1 2

--Link1--
%chk=JID_8407.chk
%mem=8GB
%nprocshared=4
# B3LYP/6-311++G(d,p) empiricaldispersion=gd3bj scf=xqc pop=npa geom=check

CID_81988923_JID_8407_Energie_anion

-1 2
