%chk=JID_3856.chk
%mem=8GB
%nprocshared=4
# opt freq B3LYP/6-31G(d) empiricaldispersion=gd3bj scf=xqc

CID_124561923_JID_3856_neutraal

0 1
C          0.90578       -0.02103        0.02610
C          0.59797       -0.28947       -1.44835
C          1.01283       -1.71701       -1.81575
C         -0.89109       -0.07377       -1.79204
C         -1.45530        1.27019       -1.38150
C         -2.42758        1.36358       -0.45540
C         -3.04700        2.65807       -0.01297
C         -2.73418        3.85689       -0.93175
C         -1.25924        3.80532       -1.36667
C         -0.88883        2.49265       -2.06403
C         -3.67203        3.88232       -2.14906
C         -3.01134        5.12467       -0.13408
O         -2.23416        6.06916       -0.03069
H          0.28292       -0.64061        0.68025
H          0.73686        1.02853        0.28660
H          1.95466       -0.24459        0.24951
H          1.20784        0.39351       -2.05227
H          0.45825       -2.45635       -1.22752
H          0.82524       -1.91661       -2.87599
H          2.08118       -1.87153       -1.63071
H         -1.03134       -0.18861       -2.87501
H         -1.48033       -0.87867       -1.33160
H         -2.80320        0.46463        0.02983
H         -2.69894        2.85826        1.00924
H         -4.13364        2.52006        0.05953
H         -1.01736        4.64685       -2.02835
H         -0.61592        3.92470       -0.48296
H         -1.24126        2.50937       -3.10231
H          0.20423        2.43600       -2.10404
H         -3.43337        4.72585       -2.80741
H         -3.60852        2.96468       -2.74209
H         -4.71737        4.00287       -1.84096
H         -4.00620        5.17556        0.34381

--Link1--
%chk=JID_3856.chk
%mem=8GB
%nprocshared=4
# B3LYP/6-311++G(d,p) empiricaldispersion=gd3bj scf=xqc pop=npa geom=check

CID_124561923_JID_3856_Energie_neutraal

0 1

--Link1--
%chk=JID_3856.chk
%mem=8GB
%nprocshared=4
# B3LYP/6-311++G(d,p) empiricaldispersion=gd3bj scf=xqc pop=npa geom=check

CID_124561923_JID_3856_Energie_kation

1 2

--Link1--
%chk=JID_3856.chk
%mem=8GB
%nprocshared=4
# B3LYP/6-311++G(d,p) empiricaldispersion=gd3bj scf=xqc pop=npa geom=check

CID_124561923_JID_3856_Energie_anion

-1 2
