%chk=JID_7177.chk
%mem=8GB
%nprocshared=4
# opt freq B3LYP/6-31G(d) empiricaldispersion=gd3bj scf=xqc

CID_115586438_JID_7177_neutraal

0 1
C          1.06941        0.01113       -0.07112
C          0.48878       -1.22518       -0.78412
C          0.87882       -2.46789        0.04530
C         -1.04614       -1.11779       -0.81788
C          1.00683       -1.38648       -2.21210
N          1.16087       -2.55821       -2.79964
C          1.59599       -2.40268       -4.10902
C          1.76905       -1.08990       -4.50133
S          1.36339       -0.03264       -3.22219
C          1.80288       -3.62178       -4.95717
N          0.61475       -3.79343       -5.79376
C          0.71147       -4.95284       -6.67854
C          0.59692       -6.26202       -5.95365
C          1.58182       -7.20446       -5.72677
C          1.09739       -8.33341       -5.00505
C         -0.24170       -8.21911       -4.70789
S         -0.90919       -6.76123       -5.30006
H          0.74598        0.04921        0.97587
H          0.74178        0.94710       -0.53729
H          2.16565       -0.00223       -0.07855
H          0.52699       -2.38176        1.07985
H          0.44591       -3.38511       -0.37121
H          1.96709       -2.60004        0.07221
H         -1.37368       -0.23692       -1.38216
H         -1.49675       -1.99670       -1.29425
H         -1.46032       -1.03765        0.19359
H          2.08280       -0.71827       -5.46595
H          2.69686       -3.48525       -5.57680
H          1.96855       -4.48658       -4.30505
H         -0.18822       -3.91966       -5.17478
H         -0.09548       -4.88530       -7.41881
H          1.64406       -4.91437       -7.25522
H          2.60578       -7.08925       -6.06145
H          1.70029       -9.18625       -4.71823
H         -0.86410       -8.92246       -4.17192

--Link1--
%chk=JID_7177.chk
%mem=8GB
%nprocshared=4
# B3LYP/6-311++G(d,p) empiricaldispersion=gd3bj scf=xqc pop=npa geom=check

CID_115586438_JID_7177_Energie_neutraal

0 1

--Link1--
%chk=JID_7177.chk
%mem=8GB
%nprocshared=4
# B3LYP/6-311++G(d,p) empiricaldispersion=gd3bj scf=xqc pop=npa geom=check

CID_115586438_JID_7177_Energie_kation

1 2

--Link1--
%chk=JID_7177.chk
%mem=8GB
%nprocshared=4
# B3LYP/6-311++G(d,p) empiricaldispersion=gd3bj scf=xqc pop=npa geom=check

CID_115586438_JID_7177_Energie_anion

-1 2
