%chk=JID_7460.chk
%mem=8GB
%nprocshared=4
# opt freq B3LYP/6-31G(d) empiricaldispersion=gd3bj scf=xqc

CID_80421268_JID_7460_neutraal

0 1
C         -2.24300       -0.04000       -0.00500
C         -0.79856        0.14627       -0.22555
N          0.01431       -0.86074       -0.56818
O          1.25238       -0.23356       -0.71767
C          1.04783        1.09163       -0.45821
N         -0.19610        1.37400       -0.13618
C          2.22494        1.99048       -0.60506
N          2.30894        2.78013       -1.84790
C          1.26229        3.80797       -1.99103
C          0.02523        3.40280       -2.80881
O          0.39577        2.79146       -4.04921
C          1.18135        1.62227       -3.79859
C          2.50444        1.97508       -3.07837
C          3.42111        2.74327       -4.05071
C          4.83319        2.80135       -3.54186
O          5.42691        1.93535       -2.92020
O          5.46910        3.92968       -3.91560
H         -2.62659        0.70760        0.69621
H         -2.78678        0.06501       -0.94873
H         -2.45669       -1.03055        0.40871
H          2.24000        2.67910        0.24937
H          3.14526        1.40105       -0.50270
H          1.73050        4.65424       -2.50960
H          0.95411        4.20408       -1.01593
H         -0.63215        2.72458       -2.25815
H         -0.56239        4.29567       -3.04660
H          1.38804        1.15146       -4.76587
H          0.58490        0.90588       -3.22370
H          3.00647        1.03108       -2.82813
H          3.45956        2.24039       -5.02435
H          3.05140        3.76026       -4.22385
H          6.36933        3.82974       -3.54231

--Link1--
%chk=JID_7460.chk
%mem=8GB
%nprocshared=4
# B3LYP/6-311++G(d,p) empiricaldispersion=gd3bj scf=xqc pop=npa geom=check

CID_80421268_JID_7460_Energie_neutraal

0 1

--Link1--
%chk=JID_7460.chk
%mem=8GB
%nprocshared=4
# B3LYP/6-311++G(d,p) empiricaldispersion=gd3bj scf=xqc pop=npa geom=check

CID_80421268_JID_7460_Energie_kation

1 2

--Link1--
%chk=JID_7460.chk
%mem=8GB
%nprocshared=4
# B3LYP/6-311++G(d,p) empiricaldispersion=gd3bj scf=xqc pop=npa geom=check

CID_80421268_JID_7460_Energie_anion

-1 2
