%chk=JID_10989.chk
%mem=8GB
%nprocshared=4
# opt freq B3LYP/6-31G(d) empiricaldispersion=gd3bj scf=xqc

CID_122699978_JID_10989_neutraal

0 1
C          0.95019        0.07367        0.04575
C          1.44263       -1.36160        0.09537
O          1.57158       -1.79131        1.45845
C          2.73560       -1.45925        2.07908
O          3.67649       -0.87978        1.55428
C          2.71317       -1.87521        3.52754
C          1.79609       -0.97123        4.34024
S          0.08586       -1.60165        4.33731
C         -0.78782       -0.07581        4.29695
O         -0.36418        0.90412        4.89652
C         -2.07209       -0.01903        3.53768
C         -2.45166       -0.98366        2.59204
C         -3.67221       -0.88018        1.90144
C         -4.06081       -1.84562        0.95832
C         -5.27729       -1.73515        0.28324
C         -6.12012       -0.65831        0.54081
C         -5.74766        0.31190        1.47249
C         -4.52722        0.21519        2.15987
C         -4.13734        1.18315        3.09662
C         -2.92109        1.06918        3.77538
H          0.01197        0.17795        0.60040
H          0.78646        0.39136       -0.98780
H          1.67106        0.75392        0.50998
H          0.70604       -2.01892       -0.37825
H          2.38471       -1.48471       -0.45071
H          2.47331       -2.94113        3.60859
H          3.74018       -1.76424        3.89795
H          2.12725       -0.94881        5.38345
H          1.83486        0.05234        3.95256
H         -1.80210       -1.82654        2.36914
H         -3.41839       -2.69708        0.74351
H         -5.56670       -2.49142       -0.44202
H         -7.06881       -0.57239        0.01711
H         -6.42045        1.14616        1.65918
H         -4.77880        2.03661        3.30709
H         -2.64353        1.83640        4.49672

--Link1--
%chk=JID_10989.chk
%mem=8GB
%nprocshared=4
# B3LYP/6-311++G(d,p) empiricaldispersion=gd3bj scf=xqc pop=npa geom=check

CID_122699978_JID_10989_Energie_neutraal

0 1

--Link1--
%chk=JID_10989.chk
%mem=8GB
%nprocshared=4
# B3LYP/6-311++G(d,p) empiricaldispersion=gd3bj scf=xqc pop=npa geom=check

CID_122699978_JID_10989_Energie_kation

1 2

--Link1--
%chk=JID_10989.chk
%mem=8GB
%nprocshared=4
# B3LYP/6-311++G(d,p) empiricaldispersion=gd3bj scf=xqc pop=npa geom=check

CID_122699978_JID_10989_Energie_anion

-1 2
