%chk=JID_5112.chk
%mem=8GB
%nprocshared=4
# opt freq B3LYP/6-31G(d) empiricaldispersion=gd3bj scf=xqc

CID_88908135_JID_5112_neutraal

0 1
C          0.92049        0.05981        0.01002
C          0.74744        0.82891       -1.28646
C          1.15979        0.00661       -2.48713
O          0.32399       -0.58341       -3.17163
N          2.47520       -0.10454       -2.82186
C          3.65215        0.44534       -2.17069
C          4.44997       -0.59293       -1.38145
S          5.58388       -1.64296       -2.36392
S          4.33734       -2.83102       -3.48826
C          4.75431       -2.45365       -5.18270
C          4.86321       -1.15190       -5.66099
C          5.18751       -0.94975       -7.00195
C          5.38799       -2.04776       -7.82784
C          5.25071       -3.30845       -7.27661
N          4.93685       -3.53118       -5.98244
H          0.41398       -0.90981       -0.03768
H          0.49896        0.62638        0.84614
H          1.97482       -0.12547        0.22963
H         -0.30925        1.09316       -1.41468
H          1.29407        1.77593       -1.26351
H          2.61594       -0.72493       -3.61237
H          4.26829        0.91444       -2.94490
H          3.34394        1.24056       -1.48757
H          5.09352       -0.05945       -0.67327
H          3.79507       -1.24144       -0.79075
H          4.70508       -0.29616       -5.01752
H          5.28258        0.05765       -7.39747
H          5.64269       -1.92576       -8.87467
H          5.39339       -4.20239       -7.87730

--Link1--
%chk=JID_5112.chk
%mem=8GB
%nprocshared=4
# B3LYP/6-311++G(d,p) empiricaldispersion=gd3bj scf=xqc pop=npa geom=check

CID_88908135_JID_5112_Energie_neutraal

0 1

--Link1--
%chk=JID_5112.chk
%mem=8GB
%nprocshared=4
# B3LYP/6-311++G(d,p) empiricaldispersion=gd3bj scf=xqc pop=npa geom=check

CID_88908135_JID_5112_Energie_kation

1 2

--Link1--
%chk=JID_5112.chk
%mem=8GB
%nprocshared=4
# B3LYP/6-311++G(d,p) empiricaldispersion=gd3bj scf=xqc pop=npa geom=check

CID_88908135_JID_5112_Energie_anion

-1 2
