%chk=JID_2550.chk
%mem=8GB
%nprocshared=4
# opt freq B3LYP/6-31G(d) empiricaldispersion=gd3bj scf=xqc

CID_58695995_JID_2550_neutraal

0 1
C          0.99045        0.08412        0.05322
C          1.64047       -0.86797        1.04845
C          2.07695       -0.15893        2.33633
N          0.91639        0.31457        3.11910
C          0.51520       -0.75270        4.05094
C          1.17954        1.58166        3.83144
C          1.56916        2.75985        2.91985
C          1.53008        3.95955        3.85114
C          0.33747        3.71847        4.76663
C          0.04644        2.20624        4.71658
S         -1.73857        1.92019        4.32611
C         -1.81492        2.38021        2.58130
H          0.05045        0.48637        0.43915
H          0.76790       -0.44348       -0.87980
H          1.65503        0.92134       -0.18269
H          0.95601       -1.69531        1.26702
H          2.52630       -1.31167        0.57821
H          2.70658       -0.83194        2.93349
H          2.74096        0.65669        2.03741
H          1.29056       -0.94915        4.80107
H         -0.40966       -0.52101        4.58198
H          0.31890       -1.68675        3.51295
H          2.03625        1.41201        4.50328
H          2.56843        2.66420        2.48618
H          0.86048        2.88585        2.09530
H          1.44645        4.90271        3.30284
H          2.45112        4.00062        4.44506
H         -0.50770        4.33327        4.43755
H          0.57727        4.03698        5.78764
H          0.15541        1.79543        5.72797
H         -1.46659        3.40315        2.42436
H         -1.24090        1.68573        1.96794
H         -2.85731        2.32731        2.25397

--Link1--
%chk=JID_2550.chk
%mem=8GB
%nprocshared=4
# B3LYP/6-311++G(d,p) empiricaldispersion=gd3bj scf=xqc pop=npa geom=check

CID_58695995_JID_2550_Energie_neutraal

0 1

--Link1--
%chk=JID_2550.chk
%mem=8GB
%nprocshared=4
# B3LYP/6-311++G(d,p) empiricaldispersion=gd3bj scf=xqc pop=npa geom=check

CID_58695995_JID_2550_Energie_kation

1 2

--Link1--
%chk=JID_2550.chk
%mem=8GB
%nprocshared=4
# B3LYP/6-311++G(d,p) empiricaldispersion=gd3bj scf=xqc pop=npa geom=check

CID_58695995_JID_2550_Energie_anion

-1 2
