%chk=JID_8562.chk
%mem=8GB
%nprocshared=4
# opt freq B3LYP/6-31G(d) empiricaldispersion=gd3bj scf=xqc

CID_62591420_JID_8562_neutraal

0 1
C          1.04615        0.07871        0.04093
O          1.46877       -0.02019        1.39089
C          2.10305       -1.26145        1.70991
C          1.10991       -2.42799        1.86665
N          0.98750       -3.22679        0.63842
C          0.10382       -4.38330        0.80134
C         -1.40783       -4.05883        0.80382
C         -2.23533       -5.31156        1.14539
C         -2.27342       -6.32878        0.00277
N         -2.74861       -5.67682       -1.22643
C         -1.94598       -4.51835       -1.64788
C         -1.91900       -3.47727       -0.52594
C         -2.95423       -6.60253       -2.27525
N         -2.25523       -6.49223       -3.42962
C         -2.50863       -7.41212       -4.39140
C         -3.43537       -8.42518       -4.23276
N         -4.15959       -8.56155       -3.10564
C         -3.90278       -7.62917       -2.15044
H          0.77578        1.12002       -0.15557
H          0.15773       -0.53455       -0.12741
H          1.84693       -0.20679       -0.64776
H          2.90321       -1.48287        0.99305
H          2.59033       -1.10220        2.67868
H          1.49047       -3.08387        2.65857
H          0.13592       -2.03731        2.17826
H          0.67794       -2.64345       -0.13343
H          0.33524       -5.07609       -0.01451
H          0.37180       -4.92034        1.72014
H         -1.60124       -3.32147        1.59251
H         -1.84878       -5.78915        2.05334
H         -3.26363       -4.99859        1.37128
H         -1.27991       -6.76751       -0.15393
H         -2.94189       -7.14107        0.31119
H         -2.39534       -4.04417       -2.53026
H         -0.92324       -4.81662       -1.91046
H         -2.94074       -3.10508       -0.37008
H         -1.32522       -2.61227       -0.83758
H         -1.93558       -7.30891       -5.30556
H         -3.62243       -9.15298       -5.01350
H         -4.51285       -7.71644       -1.25794

--Link1--
%chk=JID_8562.chk
%mem=8GB
%nprocshared=4
# B3LYP/6-311++G(d,p) empiricaldispersion=gd3bj scf=xqc pop=npa geom=check

CID_62591420_JID_8562_Energie_neutraal

0 1

--Link1--
%chk=JID_8562.chk
%mem=8GB
%nprocshared=4
# B3LYP/6-311++G(d,p) empiricaldispersion=gd3bj scf=xqc pop=npa geom=check

CID_62591420_JID_8562_Energie_kation

1 2

--Link1--
%chk=JID_8562.chk
%mem=8GB
%nprocshared=4
# B3LYP/6-311++G(d,p) empiricaldispersion=gd3bj scf=xqc pop=npa geom=check

CID_62591420_JID_8562_Energie_anion

-1 2
