%chk=JID_3474.chk
%mem=8GB
%nprocshared=4
# opt freq B3LYP/6-31G(d) empiricaldispersion=gd3bj scf=xqc

CID_64570248_JID_3474_neutraal

0 1
C          1.04481        0.05225       -0.07254
C          0.57007       -1.40143       -0.22501
C          1.50445       -2.29740        0.59229
C         -0.94128       -1.55941        0.14101
C         -1.81163       -0.67260       -0.76953
C         -1.47464       -3.01418        0.04056
N         -1.23725       -3.77889        1.26239
C         -1.98277       -5.03500        1.34769
C         -1.38590       -6.20577        0.55580
C         -2.04227       -7.53749        0.93023
C         -1.64094       -8.45001       -0.21520
C         -1.79340       -7.56942       -1.44593
C         -1.56760       -6.13337       -0.96649
H          0.84581        0.42892        0.93635
H          0.55472        0.71428       -0.79207
H          2.12166        0.13512       -0.25730
H          0.69979       -1.67681       -1.28032
H          1.32288       -2.18890        1.66655
H          1.38815       -3.34818        0.31230
H          2.55463       -2.04659        0.40471
H         -1.09248       -1.20265        1.16942
H         -1.65237       -0.91495       -1.82564
H         -2.87610       -0.80756       -0.54755
H         -1.59930        0.39000       -0.62193
H         -2.55645       -2.98514       -0.13713
H         -1.01648       -3.50126       -0.82518
H         -0.24681       -3.95896        1.39907
H         -1.98650       -5.31576        2.40845
H         -3.03628       -4.87987        1.08354
H         -0.31197       -6.28170        0.77748
H         -1.69141       -7.91422        1.89590
H         -3.13397       -7.44103        0.97474
H         -2.25899       -9.35076       -0.26919
H         -0.59536       -8.76060       -0.10299
H         -2.80678       -7.66480       -1.85374
H         -1.09324       -7.85381       -2.23755
H         -2.42848       -5.51616       -1.24732
H         -0.68062       -5.70358       -1.44395

--Link1--
%chk=JID_3474.chk
%mem=8GB
%nprocshared=4
# B3LYP/6-311++G(d,p) empiricaldispersion=gd3bj scf=xqc pop=npa geom=check

CID_64570248_JID_3474_Energie_neutraal

0 1

--Link1--
%chk=JID_3474.chk
%mem=8GB
%nprocshared=4
# B3LYP/6-311++G(d,p) empiricaldispersion=gd3bj scf=xqc pop=npa geom=check

CID_64570248_JID_3474_Energie_kation

1 2

--Link1--
%chk=JID_3474.chk
%mem=8GB
%nprocshared=4
# B3LYP/6-311++G(d,p) empiricaldispersion=gd3bj scf=xqc pop=npa geom=check

CID_64570248_JID_3474_Energie_anion

-1 2
