%chk=JID_6825.chk
%mem=8GB
%nprocshared=4
# opt freq B3LYP/6-31G(d) empiricaldispersion=gd3bj scf=xqc

CID_116884529_JID_6825_neutraal

0 1
C         -2.55700       -0.42200       -0.01100
C         -1.10821       -0.13036       -0.19505
C         -0.05911       -1.04318       -0.28295
S          1.41790       -0.15758       -0.41815
C          0.55909        1.32701       -0.41221
N         -0.74249        1.20529       -0.28792
C          1.24991        2.65856       -0.51271
C          2.22560        2.79382       -1.68772
C          3.58317        3.01878       -1.03657
N          3.23282        3.72708        0.19493
C          2.07642        2.99745        0.73311
C          4.33986        3.78757        1.13818
C         -0.07039       -2.56577       -0.20067
C          1.09192       -3.22830       -0.96670
C         -0.02155       -3.00154        1.27302
N         -1.31226       -3.09401       -0.79028
H         -3.10212        0.48790        0.26154
H         -2.99231       -0.80591       -0.93841
H         -2.71477       -1.15065        0.78956
H          0.47273        3.42573       -0.63952
H          1.95459        3.67909       -2.27815
H          2.23780        1.94187       -2.37445
H          4.24247        3.61118       -1.67873
H          4.06625        2.05541       -0.82955
H          2.39234        2.09797        1.27632
H          1.50530        3.62336        1.42778
H          4.03749        4.31944        2.04682
H          4.70061        2.79349        1.42591
H          5.17824        4.34437        0.70580
H          2.06427       -2.99070       -0.52009
H          1.00555       -4.32217       -0.95558
H          1.11803       -2.91049       -2.01627
H         -0.86545       -2.59722        1.84479
H         -0.04726       -4.09344        1.37096
H          0.89656       -2.65046        1.75928
H         -1.33126       -2.86031       -1.78286
H         -1.31155       -4.11138       -0.73910

--Link1--
%chk=JID_6825.chk
%mem=8GB
%nprocshared=4
# B3LYP/6-311++G(d,p) empiricaldispersion=gd3bj scf=xqc pop=npa geom=check

CID_116884529_JID_6825_Energie_neutraal

0 1

--Link1--
%chk=JID_6825.chk
%mem=8GB
%nprocshared=4
# B3LYP/6-311++G(d,p) empiricaldispersion=gd3bj scf=xqc pop=npa geom=check

CID_116884529_JID_6825_Energie_kation

1 2

--Link1--
%chk=JID_6825.chk
%mem=8GB
%nprocshared=4
# B3LYP/6-311++G(d,p) empiricaldispersion=gd3bj scf=xqc pop=npa geom=check

CID_116884529_JID_6825_Energie_anion

-1 2
