%chk=JID_9727.chk
%mem=8GB
%nprocshared=4
# opt freq B3LYP/6-31G(d) empiricaldispersion=gd3bj scf=xqc

CID_65961417_JID_9727_neutraal

0 1
C          0.95078       -0.01879        0.08499
C          1.29647       -1.50057        0.13556
C          1.85669       -1.94749        1.48629
N          0.87328       -1.99094        2.54756
C          0.15077       -3.05924        3.01648
N         -0.63194       -2.64411        3.99450
C         -0.32731       -1.32020        4.10542
N          0.60440       -0.87857        3.26072
C          0.26063       -4.45759        2.50502
N         -0.31059       -4.56824        1.16467
C         -0.46007       -5.94568        0.64113
C          0.82329       -6.74989        0.48287
C          1.16852       -7.54701        1.71972
C          0.02501       -8.42727        2.15512
O          0.25588       -9.47256        2.76338
N         -1.25958       -7.94393        1.92591
C         -1.57299       -6.69874        1.38927
O         -2.68390       -6.17588        1.51779
C         -2.35520       -8.70617        2.49976
H          0.11747        0.22121        0.75155
H          0.65314        0.26205       -0.93046
H          1.81085        0.59642        0.36748
H          0.40801       -2.08497       -0.12746
H          2.05136       -1.70124       -0.63405
H          2.28867       -2.94892        1.39141
H          2.66690       -1.28497        1.81332
H         -0.79244       -0.66146        4.82734
H          1.31777       -4.73959        2.49690
H         -0.25880       -5.11957        3.20737
H         -1.26066       -4.17452        1.21207
H         -0.85353       -5.81325       -0.37658
H          0.68874       -7.45127       -0.35233
H          1.66025       -6.10038        0.20011
H          1.45040       -6.91527        2.56480
H          2.02606       -8.19203        1.49481
H         -2.14925       -9.77984        2.45324
H         -2.46827       -8.41190        3.54816
H         -3.29179       -8.50677        1.97031

--Link1--
%chk=JID_9727.chk
%mem=8GB
%nprocshared=4
# B3LYP/6-311++G(d,p) empiricaldispersion=gd3bj scf=xqc pop=npa geom=check

CID_65961417_JID_9727_Energie_neutraal

0 1

--Link1--
%chk=JID_9727.chk
%mem=8GB
%nprocshared=4
# B3LYP/6-311++G(d,p) empiricaldispersion=gd3bj scf=xqc pop=npa geom=check

CID_65961417_JID_9727_Energie_kation

1 2

--Link1--
%chk=JID_9727.chk
%mem=8GB
%nprocshared=4
# B3LYP/6-311++G(d,p) empiricaldispersion=gd3bj scf=xqc pop=npa geom=check

CID_65961417_JID_9727_Energie_anion

-1 2
