%chk=JID_5024.chk
%mem=8GB
%nprocshared=4
# opt freq B3LYP/6-31G(d) empiricaldispersion=gd3bj scf=xqc

CID_116219656_JID_5024_neutraal

0 1
C          0.94939        0.04992       -0.07033
C          0.07968        0.10461       -1.31422
N          0.50717       -0.83381       -2.33138
C          1.31275       -0.51824       -3.39427
C          1.42207       -1.68289       -4.11204
N          0.71126       -2.68827       -3.51383
C          0.16860       -2.16454       -2.43699
N         -0.61146       -2.78078       -1.52101
C         -0.67869       -4.24305       -1.52024
C         -0.02691       -4.85171       -0.25634
C         -0.19358       -6.37554       -0.17782
S          0.59708       -7.33107       -1.51617
C          2.31864       -6.76410       -1.30839
C          2.49142       -5.25170       -1.40012
S          1.73332       -4.36805        0.00356
H          0.91399       -0.93809        0.39938
H          0.60832        0.78689        0.66325
H          1.99553        0.26655       -0.31138
H         -0.96692       -0.10719       -1.07123
H          0.11274        1.10888       -1.75205
H          1.72058        0.47044       -3.54749
H          1.97216       -1.85156       -5.02813
H         -0.75444       -2.35448       -0.61361
H         -1.74183       -4.51444       -1.52070
H         -0.26501       -4.67499       -2.43782
H         -0.55125       -4.42931        0.61060
H          0.18086       -6.75587        0.78001
H         -1.26159       -6.62015       -0.20569
H          2.90416       -7.23559       -2.10503
H          2.70767       -7.15164       -0.36014
H          2.10838       -4.85921       -2.34669
H          3.56144       -5.01858       -1.37648

--Link1--
%chk=JID_5024.chk
%mem=8GB
%nprocshared=4
# B3LYP/6-311++G(d,p) empiricaldispersion=gd3bj scf=xqc pop=npa geom=check

CID_116219656_JID_5024_Energie_neutraal

0 1

--Link1--
%chk=JID_5024.chk
%mem=8GB
%nprocshared=4
# B3LYP/6-311++G(d,p) empiricaldispersion=gd3bj scf=xqc pop=npa geom=check

CID_116219656_JID_5024_Energie_kation

1 2

--Link1--
%chk=JID_5024.chk
%mem=8GB
%nprocshared=4
# B3LYP/6-311++G(d,p) empiricaldispersion=gd3bj scf=xqc pop=npa geom=check

CID_116219656_JID_5024_Energie_anion

-1 2
