%chk=JID_10230.chk
%mem=8GB
%nprocshared=4
# opt freq B3LYP/6-31G(d) empiricaldispersion=gd3bj scf=xqc

CID_138994043_JID_10230_neutraal

0 1
C          1.07160       -0.03083       -0.06264
C          0.45723        1.37113       -0.25188
C          1.29161        2.09046       -1.32974
C         -1.00174        1.22495       -0.63979
N         -1.56927        1.90679       -1.64651
O         -2.89081        1.46719       -1.63037
C         -3.00561        0.56284       -0.60428
N         -1.86685        0.39622        0.03663
C         -4.28340       -0.14633       -0.27254
C         -5.44703        0.05516       -0.98623
S         -6.70003       -0.92665       -0.35169
C         -5.60638       -1.55205        0.82406
N         -4.38549       -1.05393        0.77004
C         -6.07742       -2.57831        1.81660
C         -5.78379       -2.18770        3.26122
C         -5.34913       -3.49459        3.87717
C         -4.61825       -4.14649        2.72731
O         -5.36818       -3.81028        1.55429
O          0.64942        2.02750        1.02720
C          0.08842        3.32738        1.14388
H          0.98494       -0.63945       -0.96970
H          0.58079       -0.56961        0.75703
H          2.13143        0.03896        0.20979
H          1.30244        1.52897       -2.27103
H          0.90252        3.09008       -1.55179
H          2.32640        2.22705       -0.99486
H         -5.62095        0.70650       -1.83103
H         -7.14417       -2.79910        1.69520
H         -4.96910       -1.45703        3.33476
H         -6.65557       -1.75049        3.75805
H         -4.72831       -3.37361        4.76842
H         -6.23207       -4.08671        4.14524
H         -3.60559       -3.74354        2.61488
H         -4.55633       -5.23339        2.82750
H          0.54084        4.02273        0.43286
H         -0.99762        3.30640        1.02081
H          0.30325        3.69454        2.15170

--Link1--
%chk=JID_10230.chk
%mem=8GB
%nprocshared=4
# B3LYP/6-311++G(d,p) empiricaldispersion=gd3bj scf=xqc pop=npa geom=check

CID_138994043_JID_10230_Energie_neutraal

0 1

--Link1--
%chk=JID_10230.chk
%mem=8GB
%nprocshared=4
# B3LYP/6-311++G(d,p) empiricaldispersion=gd3bj scf=xqc pop=npa geom=check

CID_138994043_JID_10230_Energie_kation

1 2

--Link1--
%chk=JID_10230.chk
%mem=8GB
%nprocshared=4
# B3LYP/6-311++G(d,p) empiricaldispersion=gd3bj scf=xqc pop=npa geom=check

CID_138994043_JID_10230_Energie_anion

-1 2
