%chk=JID_9190.chk
%mem=8GB
%nprocshared=4
# opt freq B3LYP/6-31G(d) empiricaldispersion=gd3bj scf=xqc

CID_111548215_JID_9190_neutraal

0 1
C          1.01749        0.08648        0.04708
C          0.99422       -1.21879        0.81830
O          1.81045       -1.20518        1.97921
C          3.22420       -1.44125        1.90149
C          3.62863       -2.66616        1.04590
C          3.73579       -2.45103       -0.46996
N          5.12417       -2.31052       -0.89920
C          5.43747       -2.09320       -2.21152
N          6.29471       -1.25935       -2.68762
C          7.06091       -0.43072       -1.77259
N          4.74541       -2.84108       -3.11664
C          4.89730       -4.29301       -3.12200
C          3.81413       -4.94267       -3.98731
C          3.83021       -4.55457       -5.47969
C          5.15292       -4.90429       -6.16211
C          2.67437       -5.24929       -6.20538
C          4.05196       -0.14706        1.69103
C          3.48209        1.03580        2.48680
C          5.51446       -0.33879        2.11908
H          0.70950        0.91743        0.68930
H          0.33087        0.03890       -0.80356
H          2.01304        0.32340       -0.33216
H         -0.03137       -1.37071        1.17426
H          1.20891       -2.07720        0.17844
H          3.44974       -1.75297        2.93161
H          4.57443       -3.07321        1.42539
H          2.87486       -3.44578        1.21967
H          3.29109       -3.32367       -0.96054
H          3.17519       -1.57569       -0.80193
H          5.64277       -1.69333       -0.29333
H          6.41167        0.24058       -1.20083
H          7.66361       -1.03685       -1.08821
H          7.75073        0.19393       -2.34858
H          5.00212       -2.47753       -4.03227
H          5.89838       -4.56078       -3.47661
H          4.80758       -4.69432       -2.10614
H          3.91424       -6.03222       -3.89832
H          2.83226       -4.68613       -3.56762
H          3.67152       -3.47338       -5.57250
H          5.39281       -5.96615       -6.04258
H          5.10553       -4.68762       -7.23488
H          5.98028       -4.31792       -5.75127
H          1.71354       -4.98045       -5.75380
H          2.64131       -4.95181       -7.25893
H          2.77617       -6.33913       -6.16416
H          4.03744        0.13077        0.63226
H          3.44825        0.81109        3.55849
H          4.10165        1.92893        2.34945
H          2.47051        1.29380        2.16600
H          5.98881       -1.19131        1.63095
H          6.10512        0.55099        1.87479
H          5.58847       -0.50106        3.20040

--Link1--
%chk=JID_9190.chk
%mem=8GB
%nprocshared=4
# B3LYP/6-311++G(d,p) empiricaldispersion=gd3bj scf=xqc pop=npa geom=check

CID_111548215_JID_9190_Energie_neutraal

0 1

--Link1--
%chk=JID_9190.chk
%mem=8GB
%nprocshared=4
# B3LYP/6-311++G(d,p) empiricaldispersion=gd3bj scf=xqc pop=npa geom=check

CID_111548215_JID_9190_Energie_kation

1 2

--Link1--
%chk=JID_9190.chk
%mem=8GB
%nprocshared=4
# B3LYP/6-311++G(d,p) empiricaldispersion=gd3bj scf=xqc pop=npa geom=check

CID_111548215_JID_9190_Energie_anion

-1 2
