%chk=JID_4803.chk
%mem=8GB
%nprocshared=4
# opt freq B3LYP/6-31G(d) empiricaldispersion=gd3bj scf=xqc

CID_10845494_JID_4803_neutraal

0 1
C          1.07509        0.01806       -0.06352
O          0.97616       -1.24597        0.57858
C          1.53175       -2.30502       -0.20167
C          0.59053       -2.74544       -1.29689
C          1.02795       -3.01054       -2.49986
C          1.46440       -3.28321       -3.69098
C         -0.86361       -2.95471       -0.91994
C         -1.12120       -4.25554       -0.14243
C         -1.53363       -4.03139        1.30000
C         -2.76186       -3.71214        1.61451
C         -3.97630       -3.37751        1.92555
C         -0.45253       -4.11415        2.35089
O          0.33808       -5.29441        2.20083
C         -0.29426       -6.44822        2.73919
H          0.64249        0.77232        0.59945
H          0.51790        0.02697       -1.00480
H          2.12324        0.27592       -0.24338
H          2.51003       -2.00329       -0.59672
H          1.71445       -3.15028        0.46937
H          0.89093       -3.91725       -4.35729
H          2.41697       -2.89642       -4.03398
H         -1.24031       -2.07764       -0.38033
H         -1.45594       -2.99339       -1.84527
H         -1.93895       -4.79451       -0.64179
H         -0.26009       -4.93109       -0.20231
H         -4.19273       -2.38949        2.31573
H         -4.79544       -4.07313        1.78669
H          0.21602       -3.25559        2.24731
H         -0.86278       -4.06636        3.36757
H         -0.46999       -6.32439        3.81198
H         -1.23582       -6.65703        2.22304
H          0.37404       -7.30145        2.59406

--Link1--
%chk=JID_4803.chk
%mem=8GB
%nprocshared=4
# B3LYP/6-311++G(d,p) empiricaldispersion=gd3bj scf=xqc pop=npa geom=check

CID_10845494_JID_4803_Energie_neutraal

0 1

--Link1--
%chk=JID_4803.chk
%mem=8GB
%nprocshared=4
# B3LYP/6-311++G(d,p) empiricaldispersion=gd3bj scf=xqc pop=npa geom=check

CID_10845494_JID_4803_Energie_kation

1 2

--Link1--
%chk=JID_4803.chk
%mem=8GB
%nprocshared=4
# B3LYP/6-311++G(d,p) empiricaldispersion=gd3bj scf=xqc pop=npa geom=check

CID_10845494_JID_4803_Energie_anion

-1 2
