%chk=JID_1632.chk
%mem=8GB
%nprocshared=4
# opt freq B3LYP/6-31G(d) empiricaldispersion=gd3bj scf=xqc

CID_88004586_JID_1632_neutraal

0 1
C          1.09228        0.02649        0.02797
C          0.75984        1.47895        0.31617
O          1.34755        2.37051       -0.62698
C          2.76883        2.47404       -0.58469
C          3.26655        3.17307        0.66800
C         -1.96881        0.89172       -2.49710
C         -1.33877       -0.38267       -2.95233
O         -1.20051       -1.39791       -2.29140
O         -0.90446       -0.31607       -4.22417
C         -0.25477       -3.12276        2.38827
O         -0.37370       -2.10640        3.36761
H          0.44030       -0.63798        0.60120
H          2.12672       -0.20169        0.30274
H          0.98485       -0.19612       -1.03724
H         -0.32386        1.61227        0.23163
H          1.03089        1.75414        1.33993
H          3.23690        1.49219       -0.70435
H          3.06138        3.07031       -1.45567
H          3.11069        2.55460        1.55688
H          4.33737        3.38347        0.58978
H          2.73019        4.11383        0.82715
H         -2.32928        0.76882       -1.47178
H         -2.82014        1.13410       -3.13777
H         -1.23089        1.69724       -2.51508
H         -0.50723       -1.19567       -4.39198
H         -1.08996       -3.05466        1.68684
H         -0.27471       -4.09659        2.88292
H          0.69248       -3.00602        1.85619
H         -0.42436       -1.26005        2.89271

--Link1--
%chk=JID_1632.chk
%mem=8GB
%nprocshared=4
# B3LYP/6-311++G(d,p) empiricaldispersion=gd3bj scf=xqc pop=npa geom=check

CID_88004586_JID_1632_Energie_neutraal

0 1

--Link1--
%chk=JID_1632.chk
%mem=8GB
%nprocshared=4
# B3LYP/6-311++G(d,p) empiricaldispersion=gd3bj scf=xqc pop=npa geom=check

CID_88004586_JID_1632_Energie_kation

1 2

--Link1--
%chk=JID_1632.chk
%mem=8GB
%nprocshared=4
# B3LYP/6-311++G(d,p) empiricaldispersion=gd3bj scf=xqc pop=npa geom=check

CID_88004586_JID_1632_Energie_anion

-1 2
