%chk=JID_7267.chk
%mem=8GB
%nprocshared=4
# opt freq B3LYP/6-31G(d) empiricaldispersion=gd3bj scf=xqc

CID_106576000_JID_7267_neutraal

0 1
C          0.96654        0.02355        0.09124
C          0.48850       -0.97757       -0.88621
C          1.04335       -2.19392       -1.22227
N          0.19375       -2.72796       -2.15260
C         -0.81149       -1.81969       -2.36848
N         -0.67162       -0.77056       -1.59618
N         -1.82471       -2.04185       -3.23668
C         -1.52672       -1.72111       -4.63719
C         -2.68065       -1.90696       -5.57152
C         -3.33075       -3.08692       -5.90201
N         -4.32351       -2.73307       -6.77752
N         -4.34466       -1.42066       -7.06084
C         -3.36010       -0.90520       -6.31812
C         -3.09569        0.55536       -6.34821
C         -5.29163       -3.60231       -7.40471
C         -3.10291       -4.48169       -5.44892
C          0.30739       -4.04008       -2.73615
H          0.59011       -0.21359        1.09092
H          0.61944        1.02583       -0.17847
H          2.06022        0.04291        0.12843
H          1.92739       -2.70842       -0.87326
H         -2.62441       -1.46468       -2.97609
H         -1.17262       -0.68380       -4.70180
H         -0.70244       -2.35124       -4.99497
H         -3.82209        1.08425       -6.97403
H         -3.15339        0.97423       -5.33848
H         -2.09652        0.75264       -6.74925
H         -4.78863       -4.14885       -8.20601
H         -5.68662       -4.29194       -6.65488
H         -6.10893       -3.00197       -7.81318
H         -3.87958       -4.78388       -4.73941
H         -3.11372       -5.17653       -6.29476
H         -2.13283       -4.58454       -4.95338
H         -0.67057       -4.52756       -2.71712
H          0.66673       -3.93271       -3.76210
H          1.01767       -4.63492       -2.15570

--Link1--
%chk=JID_7267.chk
%mem=8GB
%nprocshared=4
# B3LYP/6-311++G(d,p) empiricaldispersion=gd3bj scf=xqc pop=npa geom=check

CID_106576000_JID_7267_Energie_neutraal

0 1

--Link1--
%chk=JID_7267.chk
%mem=8GB
%nprocshared=4
# B3LYP/6-311++G(d,p) empiricaldispersion=gd3bj scf=xqc pop=npa geom=check

CID_106576000_JID_7267_Energie_kation

1 2

--Link1--
%chk=JID_7267.chk
%mem=8GB
%nprocshared=4
# B3LYP/6-311++G(d,p) empiricaldispersion=gd3bj scf=xqc pop=npa geom=check

CID_106576000_JID_7267_Energie_anion

-1 2
