%chk=JID_3888.chk
%mem=8GB
%nprocshared=4
# opt freq B3LYP/6-31G(d) empiricaldispersion=gd3bj scf=xqc

CID_130709216_JID_3888_neutraal

0 1
C          1.04268        0.08934       -0.01403
C          1.39840       -1.25617       -0.62415
C          1.23033       -2.43131        0.34175
C         -0.20596       -2.71058        0.85518
N         -1.07281       -3.31292       -0.19705
C         -1.95669       -2.26144       -0.76172
C         -2.73703       -2.66748       -2.01487
S         -3.89445       -4.01259       -1.66749
C         -2.67812       -5.13861       -0.92401
C         -1.83253       -4.53336        0.24535
C         -0.83604       -5.66417        0.62452
C         -2.74468       -4.27599        1.46944
O          1.70791       -3.60766       -0.32548
H         -0.01852        0.15257        0.24103
H          1.26130        0.89292       -0.72462
H          1.62645        0.27379        0.89339
H          0.82511       -1.42331       -1.54270
H          2.44605       -1.22451       -0.95152
H          1.88440       -2.27165        1.20696
H         -0.08451       -3.39967        1.69575
H         -0.65384       -1.81234        1.29666
H         -2.64683       -1.87726        0.00045
H         -1.34581       -1.40400       -1.06060
H         -2.05385       -2.97690       -2.81335
H         -3.30843       -1.81115       -2.38743
H         -2.01741       -5.47871       -1.73119
H         -3.22765       -6.02162       -0.57702
H         -0.24984       -5.44063        1.52034
H         -1.37021       -6.59964        0.83243
H         -0.13653       -5.86809       -0.19426
H         -3.49930       -3.50717        1.27956
H         -3.28207       -5.19016        1.74907
H         -2.17253       -3.96391        2.34932
H          0.94169       -3.91451       -0.85119

--Link1--
%chk=JID_3888.chk
%mem=8GB
%nprocshared=4
# B3LYP/6-311++G(d,p) empiricaldispersion=gd3bj scf=xqc pop=npa geom=check

CID_130709216_JID_3888_Energie_neutraal

0 1

--Link1--
%chk=JID_3888.chk
%mem=8GB
%nprocshared=4
# B3LYP/6-311++G(d,p) empiricaldispersion=gd3bj scf=xqc pop=npa geom=check

CID_130709216_JID_3888_Energie_kation

1 2

--Link1--
%chk=JID_3888.chk
%mem=8GB
%nprocshared=4
# B3LYP/6-311++G(d,p) empiricaldispersion=gd3bj scf=xqc pop=npa geom=check

CID_130709216_JID_3888_Energie_anion

-1 2
