%chk=JID_9489.chk
%mem=8GB
%nprocshared=4
# opt freq B3LYP/6-31G(d) empiricaldispersion=gd3bj scf=xqc

CID_79477252_JID_9489_neutraal

0 1
C          1.03299       -0.08753       -0.03536
C          0.21291       -1.36240       -0.18584
C          0.28605       -2.30611        1.03267
C         -0.16552       -1.61178        2.32168
C         -0.58029       -3.56290        0.80582
N          0.04023       -4.44349       -0.22172
C          0.94672       -5.48095        0.33459
C          0.23646       -6.68505        0.92904
S         -0.98437       -4.86714       -1.51005
O         -1.91137       -5.88074       -1.05530
O         -1.45143       -3.65007       -2.13835
C         -0.03476       -5.63865       -2.73352
C         -0.01193       -6.98164       -3.05032
N          0.88418       -7.15439       -4.07088
C          1.45439       -5.94652       -4.41633
C          0.89288       -4.98748       -3.58688
C          2.42923       -5.83290       -5.46275
O          2.87382       -6.74046       -6.14826
O          2.83928       -4.56166       -5.63078
H          0.61782        0.56977        0.73406
H          1.03302        0.47026       -0.97753
H          2.07158       -0.31664        0.22276
H         -0.83030       -1.08852       -0.38548
H          0.57624       -1.89218       -1.07445
H          1.33171       -2.61095        1.16906
H         -1.18071       -1.21335        2.22306
H         -0.15603       -2.31191        3.16425
H          0.50355       -0.78727        2.58604
H         -0.69166       -4.11905        1.74360
H         -1.59352       -3.26360        0.51228
H          1.64590       -5.80381       -0.44422
H          1.56813       -5.01963        1.11164
H         -0.20731       -7.31494        0.15341
H          0.95371       -7.30855        1.47300
H         -0.55466       -6.39543        1.62650
H         -0.56614       -7.81717       -2.64147
H          1.10466       -8.03418       -4.52383
H          1.11847       -3.92725       -3.60242
H          3.48045       -4.62043       -6.36717

--Link1--
%chk=JID_9489.chk
%mem=8GB
%nprocshared=4
# B3LYP/6-311++G(d,p) empiricaldispersion=gd3bj scf=xqc pop=npa geom=check

CID_79477252_JID_9489_Energie_neutraal

0 1

--Link1--
%chk=JID_9489.chk
%mem=8GB
%nprocshared=4
# B3LYP/6-311++G(d,p) empiricaldispersion=gd3bj scf=xqc pop=npa geom=check

CID_79477252_JID_9489_Energie_kation

1 2

--Link1--
%chk=JID_9489.chk
%mem=8GB
%nprocshared=4
# B3LYP/6-311++G(d,p) empiricaldispersion=gd3bj scf=xqc pop=npa geom=check

CID_79477252_JID_9489_Energie_anion

-1 2
