%chk=JID_3692.chk
%mem=8GB
%nprocshared=4
# opt freq B3LYP/6-31G(d) empiricaldispersion=gd3bj scf=xqc

CID_54794957_JID_3692_neutraal

0 1
C          1.08060        0.05643       -0.01787
C          0.75626       -0.39809        1.39779
C          1.45593        0.43771        2.48827
C          0.93722        1.87707        2.51751
N          1.19462       -0.22004        3.77209
C          1.94191        0.07426        4.92657
C          1.46421       -0.42146        6.16465
C          2.11056       -0.07988        7.35960
C          3.29705        0.65448        7.34609
C          3.86608        0.97167        6.11339
C          3.18988        0.69970        4.91705
N          4.02018        0.85432        8.52978
N          0.21936       -1.10589        6.20752
H          0.68211        1.05437       -0.22150
H          0.63445       -0.63136       -0.74352
H          2.16170        0.07228       -0.18788
H         -0.33121       -0.38000        1.54419
H          1.06243       -1.44756        1.49896
H          2.52849        0.43275        2.26521
H         -0.14717        1.90423        2.67291
H          1.39727        2.45288        3.32716
H          1.16060        2.39951        1.58256
H          0.20564       -0.19242        4.02779
H          1.69399       -0.40952        8.30612
H          4.83962        1.45226        6.06802
H          3.66263        1.00245        3.98978
H          3.43443        0.89657        9.35808
H          4.66864        1.63393        8.48091
H          0.13987       -1.68578        7.03733
H          0.13560       -1.67273        5.36371

--Link1--
%chk=JID_3692.chk
%mem=8GB
%nprocshared=4
# B3LYP/6-311++G(d,p) empiricaldispersion=gd3bj scf=xqc pop=npa geom=check

CID_54794957_JID_3692_Energie_neutraal

0 1

--Link1--
%chk=JID_3692.chk
%mem=8GB
%nprocshared=4
# B3LYP/6-311++G(d,p) empiricaldispersion=gd3bj scf=xqc pop=npa geom=check

CID_54794957_JID_3692_Energie_kation

1 2

--Link1--
%chk=JID_3692.chk
%mem=8GB
%nprocshared=4
# B3LYP/6-311++G(d,p) empiricaldispersion=gd3bj scf=xqc pop=npa geom=check

CID_54794957_JID_3692_Energie_anion

-1 2
