%chk=JID_5379.chk
%mem=8GB
%nprocshared=4
# opt freq B3LYP/6-31G(d) empiricaldispersion=gd3bj scf=xqc

CID_87087064_JID_5379_neutraal

0 1
C          0.98195        0.06284        0.07566
C          0.71577       -1.14983        0.92490
C         -0.26929       -1.16668        1.84362
C         -0.67736       -2.19364        2.80272
C         -1.43779       -1.84645        3.86457
C         -2.13521       -2.63937        4.97143
C         -1.43279       -2.31369        6.30225
C         -3.59287       -2.13177        5.04521
C         -2.19884       -4.16755        4.81330
C         -0.36005       -3.60497        2.52399
O         -0.77173       -4.22049        1.55387
O          0.58811       -4.07468        3.34667
C          1.71877       -2.21584        0.70049
O          2.90866       -2.05679        0.91562
O          1.21620       -3.30261        0.08855
H          0.25802        0.86385        0.25961
H          0.92117       -0.19771       -0.98645
H          1.97933        0.46748        0.27786
H         -0.86436       -0.25407        1.91766
H         -1.61293       -0.77359        3.98748
H         -1.43127       -1.23597        6.50510
H         -1.93265       -2.80485        7.14518
H         -0.38952       -2.65059        6.29178
H         -4.13111       -2.34003        4.11270
H         -4.14212       -2.61565        5.86139
H         -3.63882       -1.05036        5.22131
H         -2.61982       -4.45754        3.84472
H         -1.21706       -4.63466        4.92867
H         -2.83791       -4.61302        5.58594
H          0.83315       -4.95267        2.98824
H          0.23652       -3.37517        0.10673

--Link1--
%chk=JID_5379.chk
%mem=8GB
%nprocshared=4
# B3LYP/6-311++G(d,p) empiricaldispersion=gd3bj scf=xqc pop=npa geom=check

CID_87087064_JID_5379_Energie_neutraal

0 1

--Link1--
%chk=JID_5379.chk
%mem=8GB
%nprocshared=4
# B3LYP/6-311++G(d,p) empiricaldispersion=gd3bj scf=xqc pop=npa geom=check

CID_87087064_JID_5379_Energie_kation

1 2

--Link1--
%chk=JID_5379.chk
%mem=8GB
%nprocshared=4
# B3LYP/6-311++G(d,p) empiricaldispersion=gd3bj scf=xqc pop=npa geom=check

CID_87087064_JID_5379_Energie_anion

-1 2
