%chk=JID_10985.chk
%mem=8GB
%nprocshared=4
# opt freq B3LYP/6-31G(d) empiricaldispersion=gd3bj scf=xqc

CID_64148928_JID_10985_neutraal

0 1
C          0.96078       -0.06163        0.06829
C         -0.23718        0.74923       -0.39769
C         -0.10883        1.13613       -1.83044
N         -0.42911        0.40283       -2.87653
C         -0.16404        1.18450       -3.97149
C          0.36447        2.40037       -3.59933
N          0.37118        2.35760       -2.22610
S          0.93807        3.80389       -4.48601
O         -0.04030        3.97402       -5.53243
O          1.17908        4.76625       -3.43077
N          2.42058        3.31383       -5.13648
C          2.90370        4.06674       -6.26941
C          3.21814        5.43486       -6.19363
C          3.64459        6.08349       -7.36074
C          3.85343        5.38893       -8.56476
C          3.60836        4.00591       -8.61008
C          3.12685        3.36087       -7.46009
C          3.80973        3.21277       -9.87233
C          4.32979        6.14385       -9.77583
N          2.93985        6.21574       -5.06515
H          1.07022       -0.97989       -0.51892
H          0.84360       -0.34241        1.11970
H          1.88915        0.51149       -0.02966
H         -1.15076        0.15811       -0.26640
H         -0.34238        1.64266        0.22867
H         -0.36289        0.83196       -4.97565
H          0.67471        3.11642       -1.62788
H          2.41125        2.31053       -5.31026
H          3.81353        7.15834       -7.33153
H          2.90928        2.29685       -7.50673
H          3.67498        2.13986       -9.69845
H          3.08590        3.52245      -10.63267
H          4.82534        3.35295      -10.25572
H          5.31974        5.78842      -10.07857
H          3.62641        6.01797      -10.60506
H          4.41009        7.21761       -9.57560
H          3.51308        7.04407       -4.95903
H          2.82779        5.69532       -4.19571

--Link1--
%chk=JID_10985.chk
%mem=8GB
%nprocshared=4
# B3LYP/6-311++G(d,p) empiricaldispersion=gd3bj scf=xqc pop=npa geom=check

CID_64148928_JID_10985_Energie_neutraal

0 1

--Link1--
%chk=JID_10985.chk
%mem=8GB
%nprocshared=4
# B3LYP/6-311++G(d,p) empiricaldispersion=gd3bj scf=xqc pop=npa geom=check

CID_64148928_JID_10985_Energie_kation

1 2

--Link1--
%chk=JID_10985.chk
%mem=8GB
%nprocshared=4
# B3LYP/6-311++G(d,p) empiricaldispersion=gd3bj scf=xqc pop=npa geom=check

CID_64148928_JID_10985_Energie_anion

-1 2
