%chk=JID_1714.chk
%mem=8GB
%nprocshared=4
# opt freq B3LYP/6-31G(d) empiricaldispersion=gd3bj scf=xqc

CID_87754667_JID_1714_neutraal

0 1
C          0.91677        0.04801       -0.02770
C          1.14347        0.18573        1.47012
C          1.70092        1.54831        1.87900
S          0.44895        2.87514        1.77907
C          1.21871        4.00827        0.57731
C          2.62666        4.43349        1.01336
O          3.67923        4.05460        0.51717
O          2.64066        5.29488        2.05196
N          1.25042        3.40194       -0.73471
C          0.20963        3.43555       -1.60966
O          0.29440        3.02317       -2.75738
H          0.10350        0.69269       -0.37161
H          0.64199       -0.98359       -0.27087
H          1.82288        0.29587       -0.58939
H          0.21488       -0.03533        2.01011
H          1.86671       -0.58157        1.77301
H          2.01562        1.49823        2.92695
H          2.59079        1.77788        1.28800
H          0.60114        4.91079        0.50828
H          3.59211        5.45523        2.22829
H          2.12994        3.04300       -1.09057
H         -0.71936        3.85753       -1.19184

--Link1--
%chk=JID_1714.chk
%mem=8GB
%nprocshared=4
# B3LYP/6-311++G(d,p) empiricaldispersion=gd3bj scf=xqc pop=npa geom=check

CID_87754667_JID_1714_Energie_neutraal

0 1

--Link1--
%chk=JID_1714.chk
%mem=8GB
%nprocshared=4
# B3LYP/6-311++G(d,p) empiricaldispersion=gd3bj scf=xqc pop=npa geom=check

CID_87754667_JID_1714_Energie_kation

1 2

--Link1--
%chk=JID_1714.chk
%mem=8GB
%nprocshared=4
# B3LYP/6-311++G(d,p) empiricaldispersion=gd3bj scf=xqc pop=npa geom=check

CID_87754667_JID_1714_Energie_anion

-1 2
