%chk=JID_8400.chk
%mem=8GB
%nprocshared=4
# opt freq B3LYP/6-31G(d) empiricaldispersion=gd3bj scf=xqc

CID_81238579_JID_8400_neutraal

0 1
C          2.44200       -0.09800       -0.00700
C          0.95689       -0.10445       -0.21272
C          0.20690       -1.22104        0.15396
C         -1.18583       -1.24634       -0.01495
C         -1.76365       -0.11086       -0.61603
C         -0.93266        0.96439       -0.94406
N          0.40018        0.99710       -0.74942
C         -3.21866        0.00879       -0.97449
O         -3.95792        0.67943        0.04092
N         -1.94077       -2.34466        0.38758
C         -3.05124       -2.10752        1.31424
C         -1.50951       -3.76030        0.23971
C         -0.87373       -4.00163       -1.13994
C         -0.68808       -4.34777        1.38354
C         -0.24080       -3.74128        2.54627
C          0.47929       -4.62820        3.39641
C          0.54323       -5.89881        2.87511
S         -0.27010       -6.01924        1.37910
H          2.87921        0.84510       -0.35041
H          2.67687       -0.21587        1.05541
H          2.90529       -0.91355       -0.57096
H          0.73127       -2.06269        0.59065
H         -1.33766        1.86363       -1.40381
H         -3.33392        0.57987       -1.90313
H         -3.67487       -0.96625       -1.16872
H         -3.33052        0.97297        0.72339
H         -4.00410       -2.11099        0.77678
H         -3.11055       -2.89567        2.07321
H         -2.94392       -1.16145        1.85631
H         -2.44271       -4.34446        0.22489
H          0.15817       -3.64032       -1.19200
H         -0.84848       -5.06989       -1.38218
H         -1.44922       -3.50756       -1.93096
H         -0.42073       -2.69791        2.77745
H          0.92065       -4.34896        4.34531
H          1.01999       -6.76830        3.30669

--Link1--
%chk=JID_8400.chk
%mem=8GB
%nprocshared=4
# B3LYP/6-311++G(d,p) empiricaldispersion=gd3bj scf=xqc pop=npa geom=check

CID_81238579_JID_8400_Energie_neutraal

0 1

--Link1--
%chk=JID_8400.chk
%mem=8GB
%nprocshared=4
# B3LYP/6-311++G(d,p) empiricaldispersion=gd3bj scf=xqc pop=npa geom=check

CID_81238579_JID_8400_Energie_kation

1 2

--Link1--
%chk=JID_8400.chk
%mem=8GB
%nprocshared=4
# B3LYP/6-311++G(d,p) empiricaldispersion=gd3bj scf=xqc pop=npa geom=check

CID_81238579_JID_8400_Energie_anion

-1 2
