%chk=JID_9509.chk
%mem=8GB
%nprocshared=4
# opt freq B3LYP/6-31G(d) empiricaldispersion=gd3bj scf=xqc

CID_81915161_JID_9509_neutraal

0 1
C          1.24600        0.75200        0.43800
C          1.01966       -0.73797        0.69393
C         -0.27008       -1.10484       -0.03803
C         -1.03178        0.21580       -0.15022
C          0.08715        1.21360       -0.44712
C         -2.14339        0.17563       -1.21837
N         -2.94656        1.39642       -1.15457
C         -2.75987        2.34609       -2.15464
N         -2.36348        1.97057       -3.39713
C         -2.22134        2.88863       -4.37689
N         -2.42871        4.21606       -4.25537
C         -2.81877        4.55132       -3.01986
C         -3.00685        3.70637       -1.94654
C         -3.42514        4.55998       -0.90393
N         -3.49138        5.84474       -1.27648
N         -3.11763        5.80525       -2.57333
N         -1.82633        2.38033       -5.63455
N         -1.11104        3.22744       -6.51958
O         -1.60920        0.54687        1.12510
H          1.24135        1.29719        1.38904
H          2.21144        0.94096       -0.04222
H          0.91430       -0.91858        1.76996
H          1.86099       -1.34354        0.34188
H         -0.82469       -1.87183        0.51205
H         -0.02516       -1.49916       -1.03175
H          0.38893        1.16154       -1.50015
H         -0.18686        2.24739       -0.21306
H         -1.73110       -0.03719       -2.21117
H         -2.82242       -0.65223       -0.98005
H         -2.95499        1.80037       -0.21956
H         -3.68348        4.29816        0.11399
H         -3.08722        6.66590       -3.10574
H         -1.45079        1.44700       -5.46453
H         -1.42701        3.05374       -7.47662
H         -1.38585        4.19891       -6.32626
H         -2.23719       -0.16119        1.35395

--Link1--
%chk=JID_9509.chk
%mem=8GB
%nprocshared=4
# B3LYP/6-311++G(d,p) empiricaldispersion=gd3bj scf=xqc pop=npa geom=check

CID_81915161_JID_9509_Energie_neutraal

0 1

--Link1--
%chk=JID_9509.chk
%mem=8GB
%nprocshared=4
# B3LYP/6-311++G(d,p) empiricaldispersion=gd3bj scf=xqc pop=npa geom=check

CID_81915161_JID_9509_Energie_kation

1 2

--Link1--
%chk=JID_9509.chk
%mem=8GB
%nprocshared=4
# B3LYP/6-311++G(d,p) empiricaldispersion=gd3bj scf=xqc pop=npa geom=check

CID_81915161_JID_9509_Energie_anion

-1 2
