%chk=JID_6738.chk
%mem=8GB
%nprocshared=4
# opt freq B3LYP/6-31G(d) empiricaldispersion=gd3bj scf=xqc

CID_62731980_JID_6738_neutraal

0 1
C          0.95807        0.04202       -0.08048
C          0.23978       -1.22080       -0.54146
C          0.42278       -2.41586        0.41450
C         -0.31814       -2.31550        1.72222
C         -0.16176       -3.13664        2.82759
N         -1.07266       -2.72561        3.75769
N         -1.78963       -1.66211        3.35945
C         -1.34403       -1.42526        2.12165
C         -1.38787       -3.38607        5.00983
C         -0.27228       -3.32055        6.05501
C          0.06451       -1.90833        6.56969
C         -1.12311       -1.24412        7.26771
C          1.25060       -1.98516        7.53582
N         -0.07858       -3.62552       -0.26307
C          0.97057       -4.36770       -0.96264
C          1.79961       -5.23571       -0.02348
H          0.57409        0.40146        0.87815
H          0.82265        0.84106       -0.81643
H          2.03240       -0.13897        0.02692
H         -0.82402       -0.99736       -0.69113
H          0.64253       -1.47502       -1.53059
H          1.48856       -2.51439        0.65896
H          0.48632       -3.98321        3.00352
H         -1.79216       -0.61690        1.55911
H         -2.32492       -2.96964        5.39401
H         -1.58901       -4.43470        4.75830
H         -0.56470       -3.95173        6.90444
H          0.63624       -3.77253        5.63617
H          0.36449       -1.27826        5.72364
H         -1.50545       -1.86919        8.08193
H         -0.83241       -0.27754        7.69331
H         -1.94284       -1.05552        6.56837
H          2.12589       -2.42260        7.04399
H          1.53133       -0.98736        7.88915
H          1.01147       -2.59935        8.41100
H         -0.52347       -4.24282        0.41549
H          0.48245       -5.02437       -1.69159
H          1.61986       -3.69784       -1.53751
H          1.16551       -5.93893        0.52714
H          2.52609       -5.82011       -0.59730
H          2.35474       -4.63557        0.70387

--Link1--
%chk=JID_6738.chk
%mem=8GB
%nprocshared=4
# B3LYP/6-311++G(d,p) empiricaldispersion=gd3bj scf=xqc pop=npa geom=check

CID_62731980_JID_6738_Energie_neutraal

0 1

--Link1--
%chk=JID_6738.chk
%mem=8GB
%nprocshared=4
# B3LYP/6-311++G(d,p) empiricaldispersion=gd3bj scf=xqc pop=npa geom=check

CID_62731980_JID_6738_Energie_kation

1 2

--Link1--
%chk=JID_6738.chk
%mem=8GB
%nprocshared=4
# B3LYP/6-311++G(d,p) empiricaldispersion=gd3bj scf=xqc pop=npa geom=check

CID_62731980_JID_6738_Energie_anion

-1 2
