%chk=JID_5963.chk
%mem=8GB
%nprocshared=4
# opt freq B3LYP/6-31G(d) empiricaldispersion=gd3bj scf=xqc

CID_83686619_JID_5963_neutraal

0 1
C          1.07556       -0.05015        0.04214
C          0.22285        0.96921        0.76104
O         -0.83852        1.33076        0.24369
C          0.67052        1.44261        2.16860
C          0.07149        0.44181        3.17717
C          2.20576        1.40560        2.32294
C          0.17259        2.86737        2.41156
C         -0.89417        3.27539        3.20003
N         -1.01733        4.64404        3.13741
C         -1.95608        5.46088        3.76640
C         -1.90306        6.79108        3.58119
C         -0.86048        7.33823        2.72613
C          0.04298        6.54499        2.11761
C         -0.01610        5.13464        2.31331
C          0.71658        4.06563        1.84633
H          0.56522       -0.37209       -0.87076
H          1.22795       -0.92718        0.67511
H          2.03295        0.39291       -0.24056
H          0.46441       -0.56913        3.01791
H          0.30022        0.72840        4.21031
H         -1.01877        0.37521        3.08013
H          2.70595        1.97807        1.53323
H          2.51724        1.82791        3.28596
H          2.59619        0.38276        2.27515
H         -1.59342        2.70239        3.79329
H         -2.70147        4.97822        4.38439
H         -2.61315        7.46541        4.04583
H         -0.83347        8.41465        2.58835
H          0.81350        6.96461        1.47934
H          1.55511        4.13851        1.16587

--Link1--
%chk=JID_5963.chk
%mem=8GB
%nprocshared=4
# B3LYP/6-311++G(d,p) empiricaldispersion=gd3bj scf=xqc pop=npa geom=check

CID_83686619_JID_5963_Energie_neutraal

0 1

--Link1--
%chk=JID_5963.chk
%mem=8GB
%nprocshared=4
# B3LYP/6-311++G(d,p) empiricaldispersion=gd3bj scf=xqc pop=npa geom=check

CID_83686619_JID_5963_Energie_kation

1 2

--Link1--
%chk=JID_5963.chk
%mem=8GB
%nprocshared=4
# B3LYP/6-311++G(d,p) empiricaldispersion=gd3bj scf=xqc pop=npa geom=check

CID_83686619_JID_5963_Energie_anion

-1 2
