%chk=JID_351.chk
%mem=8GB
%nprocshared=4
# opt freq B3LYP/6-31G(d) empiricaldispersion=gd3bj scf=xqc

CID_139426215_JID_351_neutraal

0 1
C          1.08992        0.00500        0.04346
C          0.63359        1.35221        0.58424
C          1.05504        2.54882       -0.29064
C          0.53067        2.50378       -1.75100
C         -0.99542        2.44205       -1.86522
C          1.06334        3.68625       -2.57085
N          0.60581        3.77158        0.36920
C          1.40234        4.69603        0.98528
C          1.03199        5.78022        1.67592
C         -0.36199        6.24561        1.94042
H          0.57860       -0.24771       -0.88977
H          0.86384       -0.78506        0.76688
H          2.16930       -0.00092       -0.13752
H         -0.45344        1.33797        0.72748
H          1.06330        1.48106        1.58658
H          2.15288        2.54835       -0.33908
H          0.92954        1.59732       -2.22357
H         -1.47216        3.32685       -1.43170
H         -1.29801        2.38672       -2.91688
H         -1.39883        1.55569       -1.36721
H          2.15545        3.74094       -2.51159
H          0.79370        3.57449       -3.62669
H          0.65307        4.64003       -2.22306
H         -0.39435        3.86911        0.51235
H          2.46663        4.49249        0.86992
H          1.81826        6.40626        2.09292
H         -0.53711        6.29292        3.01970
H         -0.50038        7.25002        1.52818
H         -1.12403        5.59533        1.50357

--Link1--
%chk=JID_351.chk
%mem=8GB
%nprocshared=4
# B3LYP/6-311++G(d,p) empiricaldispersion=gd3bj scf=xqc pop=npa geom=check

CID_139426215_JID_351_Energie_neutraal

0 1

--Link1--
%chk=JID_351.chk
%mem=8GB
%nprocshared=4
# B3LYP/6-311++G(d,p) empiricaldispersion=gd3bj scf=xqc pop=npa geom=check

CID_139426215_JID_351_Energie_kation

1 2

--Link1--
%chk=JID_351.chk
%mem=8GB
%nprocshared=4
# B3LYP/6-311++G(d,p) empiricaldispersion=gd3bj scf=xqc pop=npa geom=check

CID_139426215_JID_351_Energie_anion

-1 2
