%chk=JID_4031.chk
%mem=8GB
%nprocshared=4
# opt freq B3LYP/6-31G(d) empiricaldispersion=gd3bj scf=xqc

CID_63296755_JID_4031_neutraal

0 1
C          0.94819       -0.07256        0.04529
C          0.29000       -1.27201        0.72549
C          0.62382       -1.44171        2.18776
C          1.82268       -0.81841        2.86582
C          0.43919       -0.32483        3.18987
N         -1.14754       -1.12952        0.59857
C         -2.06842       -2.12790        0.61999
N         -3.29711       -1.90563        0.96031
C         -4.05669       -3.17218        0.92906
C         -3.40623       -4.14302       -0.05115
S         -1.65964       -3.75667        0.14496
C         -3.67313       -5.57963        0.26968
C         -4.89845       -6.26290       -0.28548
C         -3.53553       -6.64116       -0.79416
H          0.67946        0.87332        0.52751
H          0.63353       -0.00419       -1.00247
H          2.03915       -0.16192        0.05614
H          0.64334       -2.16049        0.19058
H          0.34780       -2.43951        2.52120
H          2.33768       -1.40741        3.61790
H          2.47809       -0.15228        2.31907
H          0.15807        0.66200        2.84236
H          0.01938       -0.58233        4.15649
H         -1.51708       -0.28389        1.01869
H         -5.08811       -2.96881        0.61903
H         -4.10977       -3.57995        1.94703
H         -3.69879       -3.89232       -1.07768
H         -3.37568       -5.84686        1.27953
H         -5.41634       -6.97211        0.35083
H         -5.55089       -5.71068       -0.95268
H         -3.26374       -6.33861       -1.79941
H         -3.12826       -7.60171       -0.49860

--Link1--
%chk=JID_4031.chk
%mem=8GB
%nprocshared=4
# B3LYP/6-311++G(d,p) empiricaldispersion=gd3bj scf=xqc pop=npa geom=check

CID_63296755_JID_4031_Energie_neutraal

0 1

--Link1--
%chk=JID_4031.chk
%mem=8GB
%nprocshared=4
# B3LYP/6-311++G(d,p) empiricaldispersion=gd3bj scf=xqc pop=npa geom=check

CID_63296755_JID_4031_Energie_kation

1 2

--Link1--
%chk=JID_4031.chk
%mem=8GB
%nprocshared=4
# B3LYP/6-311++G(d,p) empiricaldispersion=gd3bj scf=xqc pop=npa geom=check

CID_63296755_JID_4031_Energie_anion

-1 2
