%chk=JID_3672.chk
%mem=8GB
%nprocshared=4
# opt freq B3LYP/6-31G(d) empiricaldispersion=gd3bj scf=xqc

CID_61272438_JID_3672_neutraal

0 1
C          1.02637        0.04897       -0.08310
C          0.25222        1.35485       -0.00000
C          0.54509        2.30642       -1.16349
C          0.01953        1.83686       -2.52389
N         -1.43030        1.76347       -2.59371
C         -2.22954        0.65208       -2.74441
C         -3.53983        1.11658       -2.66892
C         -3.39605        2.51794       -2.53157
N         -2.12591        2.91337       -2.52031
C         -4.84950        0.39332       -2.72831
C         -5.12157       -0.24448       -4.08817
N         -4.89509       -0.59628       -1.65368
C         -1.68418       -0.71965       -2.90808
H          0.76388       -0.52622       -0.97384
H          0.80963       -0.57234        0.79176
H          2.10483        0.23611       -0.10390
H         -0.82079        1.14434        0.06521
H          0.52847        1.85766        0.93480
H          0.11205        3.28572       -0.92411
H          1.62882        2.45874       -1.23902
H          0.32775        2.54608       -3.30192
H          0.44321        0.86731       -2.79516
H         -4.17487        3.26478       -2.44520
H         -5.65371        1.11441       -2.53508
H         -4.39150       -1.02012       -4.33975
H         -6.11554       -0.70525       -4.10951
H         -5.08659        0.50903       -4.88313
H         -5.76823       -1.11546       -1.71069
H         -4.15158       -1.27605       -1.78934
H         -0.87865       -0.74164       -3.64850
H         -1.29907       -1.09226       -1.95480
H         -2.44645       -1.42233       -3.25241

--Link1--
%chk=JID_3672.chk
%mem=8GB
%nprocshared=4
# B3LYP/6-311++G(d,p) empiricaldispersion=gd3bj scf=xqc pop=npa geom=check

CID_61272438_JID_3672_Energie_neutraal

0 1

--Link1--
%chk=JID_3672.chk
%mem=8GB
%nprocshared=4
# B3LYP/6-311++G(d,p) empiricaldispersion=gd3bj scf=xqc pop=npa geom=check

CID_61272438_JID_3672_Energie_kation

1 2

--Link1--
%chk=JID_3672.chk
%mem=8GB
%nprocshared=4
# B3LYP/6-311++G(d,p) empiricaldispersion=gd3bj scf=xqc pop=npa geom=check

CID_61272438_JID_3672_Energie_anion

-1 2
