%chk=JID_8854.chk
%mem=8GB
%nprocshared=4
# opt freq B3LYP/6-31G(d) empiricaldispersion=gd3bj scf=xqc

CID_119135782_JID_8854_neutraal

0 1
C          2.09100       -0.76200        0.01200
C          0.84416       -1.26428       -0.09395
C         -0.22850       -0.41777       -0.49118
N         -1.51276       -0.65550       -0.65451
C         -2.06316        0.55211       -1.00288
C         -1.10388        1.53659       -1.05974
N          0.07574        0.91676       -0.73638
C          1.35698        1.44613       -0.63831
C          2.37908        0.63762       -0.29349
C          3.71083        1.28090       -0.12001
O          3.81077        2.37671        0.43096
N          4.83419        0.69162       -0.61448
C          4.99181       -0.57246       -1.30874
C          6.30170       -0.66297       -2.09499
C          7.57094       -0.54616       -1.24814
C          7.68331       -1.62335       -0.20415
O          7.11905       -2.70332       -0.19908
O          8.53799       -1.28393        0.77906
H          2.89433       -1.39329        0.37495
H          0.62262       -2.29782        0.14736
H         -3.12474        0.65011       -1.19111
H         -1.15800        2.59057       -1.28950
H          1.47223        2.50616       -0.83263
H          5.65928        1.23203       -0.38409
H          4.93256       -1.36887       -0.56245
H          4.15060       -0.69755       -1.99858
H          6.31497       -1.61950       -2.63220
H          6.31944        0.12811       -2.85468
H          8.44882       -0.62563       -1.89908
H          7.60738        0.43123       -0.75628
H          8.54123       -2.05540        1.38414

--Link1--
%chk=JID_8854.chk
%mem=8GB
%nprocshared=4
# B3LYP/6-311++G(d,p) empiricaldispersion=gd3bj scf=xqc pop=npa geom=check

CID_119135782_JID_8854_Energie_neutraal

0 1

--Link1--
%chk=JID_8854.chk
%mem=8GB
%nprocshared=4
# B3LYP/6-311++G(d,p) empiricaldispersion=gd3bj scf=xqc pop=npa geom=check

CID_119135782_JID_8854_Energie_kation

1 2

--Link1--
%chk=JID_8854.chk
%mem=8GB
%nprocshared=4
# B3LYP/6-311++G(d,p) empiricaldispersion=gd3bj scf=xqc pop=npa geom=check

CID_119135782_JID_8854_Energie_anion

-1 2
