%chk=JID_6202.chk
%mem=8GB
%nprocshared=4
# opt freq B3LYP/6-31G(d) empiricaldispersion=gd3bj scf=xqc

CID_68992381_JID_6202_neutraal

0 1
C          1.05213       -0.04793        0.07061
C          0.66120       -0.66969       -1.27308
C          1.32770       -2.02404       -1.45018
C          0.82631       -3.17636       -0.82421
C          1.46345       -4.40796       -0.98655
C          2.61511       -4.50191       -1.76428
C          3.13175       -3.36450       -2.38028
C          2.49345       -2.13269       -2.22420
C         -0.84777       -0.72792       -1.50643
O         -1.35604       -0.81457       -2.61785
O         -1.53693       -0.72648       -0.33228
C         -2.96447       -0.84642       -0.33708
C         -3.71246        0.29848       -1.01509
C         -5.07789       -0.31281       -1.28405
C         -4.74969       -1.72856       -1.74276
C         -3.50783       -2.14156       -0.95123
H          0.75270       -0.67779        0.91616
H          0.57639        0.93047        0.19973
H          2.13686        0.09374        0.13473
H          1.03152        0.01487       -2.04949
H         -0.06634       -3.12925       -0.20411
H          1.06028       -5.29483       -0.50456
H          3.11040       -5.46104       -1.88939
H          4.03260       -3.43608       -2.98417
H          2.91491       -1.25691       -2.71312
H         -3.25147       -0.84436        0.72286
H         -3.77142        1.18247       -0.37239
H         -3.23982        0.61447       -1.94986
H         -5.64545        0.24553       -2.03385
H         -5.66812       -0.34303       -0.36036
H         -4.51684       -1.72637       -2.81418
H         -5.58645       -2.41601       -1.58557
H         -2.78901       -2.66925       -1.58484
H         -3.78469       -2.83827       -0.15105

--Link1--
%chk=JID_6202.chk
%mem=8GB
%nprocshared=4
# B3LYP/6-311++G(d,p) empiricaldispersion=gd3bj scf=xqc pop=npa geom=check

CID_68992381_JID_6202_Energie_neutraal

0 1

--Link1--
%chk=JID_6202.chk
%mem=8GB
%nprocshared=4
# B3LYP/6-311++G(d,p) empiricaldispersion=gd3bj scf=xqc pop=npa geom=check

CID_68992381_JID_6202_Energie_kation

1 2

--Link1--
%chk=JID_6202.chk
%mem=8GB
%nprocshared=4
# B3LYP/6-311++G(d,p) empiricaldispersion=gd3bj scf=xqc pop=npa geom=check

CID_68992381_JID_6202_Energie_anion

-1 2
