%chk=JID_4362.chk
%mem=8GB
%nprocshared=4
# opt freq B3LYP/6-31G(d) empiricaldispersion=gd3bj scf=xqc

CID_139548782_JID_4362_neutraal

0 1
C          1.05271        0.05403       -0.06560
C          0.73135        1.54025       -0.03148
C          1.16324        2.28709       -1.29760
C          0.52736        1.79750       -2.60245
C         -0.97074        1.93530       -2.61925
C         -1.70762        2.83795       -3.30384
C         -1.10587        3.94509       -4.14318
N         -1.19196        3.57669       -5.55315
C         -0.61826        4.58144       -6.45157
C          0.91193        4.58046       -6.42590
C         -1.10973        4.26992       -7.86672
C         -3.23716        2.82786       -3.26524
C         -3.84548        1.44152       -3.50458
C         -3.75095        3.42192       -1.95139
H          0.45865       -0.46867       -0.82081
H          0.82635       -0.40078        0.90422
H          2.11291       -0.11456       -0.27903
H         -0.34066        1.67853        0.14814
H          1.24869        1.98883        0.82536
H          0.93954        3.35348       -1.16536
H          2.25362        2.21158       -1.39521
H          0.98497        2.33643       -3.43858
H          0.77931        0.74481       -2.77532
H         -1.48971        1.18886       -2.02004
H         -1.65916        4.87421       -3.95686
H         -0.07416        4.14588       -3.84173
H         -0.72243        2.68162       -5.68595
H         -0.98621        5.57933       -6.18334
H          1.31651        3.58917       -6.65973
H          1.30956        5.28501       -7.16466
H          1.30029        4.88247       -5.44844
H         -2.20443        4.28754       -7.91505
H         -0.73586        5.01390       -8.57857
H         -0.77173        3.28321       -8.20407
H         -3.60884        3.46574       -4.07840
H         -3.64911        0.75395       -2.67536
H         -4.93306        1.51767       -3.61406
H         -3.45008        0.99344       -4.42273
H         -3.35716        4.43233       -1.79553
H         -4.84432        3.48858       -1.95970
H         -3.46021        2.80982       -1.09029

--Link1--
%chk=JID_4362.chk
%mem=8GB
%nprocshared=4
# B3LYP/6-311++G(d,p) empiricaldispersion=gd3bj scf=xqc pop=npa geom=check

CID_139548782_JID_4362_Energie_neutraal

0 1

--Link1--
%chk=JID_4362.chk
%mem=8GB
%nprocshared=4
# B3LYP/6-311++G(d,p) empiricaldispersion=gd3bj scf=xqc pop=npa geom=check

CID_139548782_JID_4362_Energie_kation

1 2

--Link1--
%chk=JID_4362.chk
%mem=8GB
%nprocshared=4
# B3LYP/6-311++G(d,p) empiricaldispersion=gd3bj scf=xqc pop=npa geom=check

CID_139548782_JID_4362_Energie_anion

-1 2
