%chk=JID_5101.chk
%mem=8GB
%nprocshared=4
# opt freq B3LYP/6-31G(d) empiricaldispersion=gd3bj scf=xqc

CID_116512866_JID_5101_neutraal

0 1
C          0.91423       -0.03603       -0.03667
C          0.33257       -1.03204       -1.03163
C          1.15287       -2.30637       -1.18576
N         -1.08055       -1.30750       -0.79241
C         -1.60552       -1.84544        0.25675
N         -0.90551       -2.29996        1.37248
N         -1.38088       -3.46556        2.04079
N         -2.99473       -2.04478        0.30693
C         -3.73804       -1.91742       -0.95593
C         -3.77758       -1.52312        1.38636
C         -4.98306       -2.14844        1.75115
C         -5.75377       -1.66666        2.81262
C         -5.33006       -0.55194        3.53085
C         -4.13583        0.07811        3.19061
C         -3.36529       -0.40534        2.12937
H          1.02994       -0.45293        0.96650
H          0.27352        0.84875        0.04424
H          1.90526        0.29522       -0.36550
H          0.36585       -0.53278       -2.00900
H          1.26878       -2.85621       -0.24904
H          0.68377       -2.98237       -1.90889
H          2.15861       -2.07007       -1.54983
H          0.10352       -2.25700        1.28279
H         -2.21644       -3.20288        2.57358
H         -1.73734       -4.12110        1.33858
H         -4.73624       -2.36545       -0.90311
H         -3.84211       -0.86569       -1.24871
H         -3.21607       -2.44869       -1.76082
H         -5.32062       -3.03590        1.22187
H         -6.68091       -2.16634        3.08096
H         -5.92741       -0.17614        4.35745
H         -3.79966        0.94749        3.74965
H         -2.44054        0.10954        1.87961

--Link1--
%chk=JID_5101.chk
%mem=8GB
%nprocshared=4
# B3LYP/6-311++G(d,p) empiricaldispersion=gd3bj scf=xqc pop=npa geom=check

CID_116512866_JID_5101_Energie_neutraal

0 1

--Link1--
%chk=JID_5101.chk
%mem=8GB
%nprocshared=4
# B3LYP/6-311++G(d,p) empiricaldispersion=gd3bj scf=xqc pop=npa geom=check

CID_116512866_JID_5101_Energie_kation

1 2

--Link1--
%chk=JID_5101.chk
%mem=8GB
%nprocshared=4
# B3LYP/6-311++G(d,p) empiricaldispersion=gd3bj scf=xqc pop=npa geom=check

CID_116512866_JID_5101_Energie_anion

-1 2
