%chk=JID_3822.chk
%mem=8GB
%nprocshared=4
# opt freq B3LYP/6-31G(d) empiricaldispersion=gd3bj scf=xqc

CID_21943494_JID_3822_neutraal

0 1
C          1.26600       -0.09700        0.26800
C          0.63579        1.21119       -0.18143
C         -0.85999        0.92283       -0.31005
C         -1.01851       -0.60440       -0.21160
C          0.39766       -1.14997       -0.40020
C         -2.03909       -1.15079       -1.21490
C         -2.21303       -2.67570       -1.19943
C         -2.69515       -3.27675        0.13613
C         -4.02554       -2.70785        0.65621
N         -5.12620       -2.77811       -0.30441
C         -2.77613       -4.79147        0.12229
O         -2.95648       -5.49655        1.10497
O         -2.61192       -5.36253       -1.08439
H          1.20570       -0.19107        1.35871
H          2.31680       -0.17476       -0.02502
H          0.84150        2.02922        0.51542
H          1.03743        1.50050       -1.16004
H         -1.24139        1.32578       -1.25490
H         -1.41900        1.41020        0.49704
H         -1.35097       -0.83645        0.80846
H          0.65158       -1.22912       -1.46416
H          0.52854       -2.13504        0.05781
H         -3.00719       -0.66551       -1.04444
H         -1.73451       -0.86073       -2.22924
H         -2.91190       -2.94489       -2.00201
H         -1.25969       -3.14304       -1.47846
H         -1.92141       -3.05979        0.88472
H         -4.33168       -3.24548        1.56138
H         -3.88914       -1.66173        0.95254
H         -5.97646       -2.41950        0.13059
H         -4.93991       -2.16788       -1.09946
H         -2.73424       -6.31826       -0.90744

--Link1--
%chk=JID_3822.chk
%mem=8GB
%nprocshared=4
# B3LYP/6-311++G(d,p) empiricaldispersion=gd3bj scf=xqc pop=npa geom=check

CID_21943494_JID_3822_Energie_neutraal

0 1

--Link1--
%chk=JID_3822.chk
%mem=8GB
%nprocshared=4
# B3LYP/6-311++G(d,p) empiricaldispersion=gd3bj scf=xqc pop=npa geom=check

CID_21943494_JID_3822_Energie_kation

1 2

--Link1--
%chk=JID_3822.chk
%mem=8GB
%nprocshared=4
# B3LYP/6-311++G(d,p) empiricaldispersion=gd3bj scf=xqc pop=npa geom=check

CID_21943494_JID_3822_Energie_anion

-1 2
