%chk=JID_7094.chk
%mem=8GB
%nprocshared=4
# opt freq B3LYP/6-31G(d) empiricaldispersion=gd3bj scf=xqc

CID_53972135_JID_7094_neutraal

0 1
C          0.30400        1.24800       -0.18300
C         -1.13398        1.31641        0.33190
N         -1.80782        0.02419        0.20103
C         -1.10664       -1.05452        0.89750
C          0.33016       -1.19291        0.38794
C          1.07988        0.13416        0.52122
N          2.43438        0.03437       -0.02870
C         -3.25156        0.06432        0.46062
C         -3.77173       -0.02615        1.90775
C         -3.40275        1.11482        2.85910
C         -3.80848        2.51603        2.39140
C         -5.31783        2.76043        2.30660
C         -6.06460        2.71280        3.64360
C         -5.54785        3.66318        4.73217
C         -5.46255        5.13517        4.33617
C         -6.82418        5.73662        4.10522
O         -7.25532        6.69130        4.74375
H          0.79527        2.21513       -0.01928
H          0.29178        1.07730       -1.26816
H         -1.66297        2.07685       -0.25466
H         -1.11392        1.65866        1.37007
H         -1.62064       -2.00803        0.72598
H         -1.08912       -0.88027        1.98025
H          0.31455       -1.51857       -0.66105
H          0.84299       -1.97790        0.95711
H          1.17077        0.38535        1.58540
H          2.92034       -0.75264        0.39958
H          2.38151       -0.17950       -1.02482
H         -3.69403        0.93561       -0.03794
H         -3.68240       -0.79291       -0.07518
H         -4.86540       -0.10490        1.86395
H         -3.43873       -0.97084        2.35533
H         -3.85661        0.91078        3.83608
H         -2.32338        1.09785        3.04137
H         -3.35354        3.25157        3.06428
H         -3.37587        2.72015        1.40703
H         -5.48424        3.73845        1.83945
H         -5.77223        2.03162        1.62534
H         -7.12330        2.92693        3.45335
H         -6.03889        1.68978        4.03771
H         -6.20247        3.56475        5.60757
H         -4.55493        3.33040        5.05709
H         -4.98000        5.69698        5.14429
H         -4.86124        5.28496        3.43516
H         -7.41711        5.29423        3.28723

--Link1--
%chk=JID_7094.chk
%mem=8GB
%nprocshared=4
# B3LYP/6-311++G(d,p) empiricaldispersion=gd3bj scf=xqc pop=npa geom=check

CID_53972135_JID_7094_Energie_neutraal

0 1

--Link1--
%chk=JID_7094.chk
%mem=8GB
%nprocshared=4
# B3LYP/6-311++G(d,p) empiricaldispersion=gd3bj scf=xqc pop=npa geom=check

CID_53972135_JID_7094_Energie_kation

1 2

--Link1--
%chk=JID_7094.chk
%mem=8GB
%nprocshared=4
# B3LYP/6-311++G(d,p) empiricaldispersion=gd3bj scf=xqc pop=npa geom=check

CID_53972135_JID_7094_Energie_anion

-1 2
