%chk=JID_2468.chk
%mem=8GB
%nprocshared=4
# opt freq B3LYP/6-31G(d) empiricaldispersion=gd3bj scf=xqc

CID_68219020_JID_2468_neutraal

0 1
C          0.94241        0.06258       -0.05261
C          1.84427       -0.97859        0.59319
C          3.12217       -0.37156        1.16333
O          3.26077        0.85045        1.19417
N          4.10398       -1.27647        1.62084
C          3.67113       -2.60449        2.08447
C          4.77782       -3.64451        2.14670
C          5.95431       -3.13478        2.95361
C          6.45739       -1.84610        2.32568
C          5.37599       -0.73238        2.21028
C          6.02682        0.35471        1.31590
C          5.10288       -0.12820        3.60308
H          0.62424        0.81522        0.67639
H          0.04679       -0.41291       -0.46429
H          1.46034        0.58038       -0.86672
H          1.28887       -1.46200        1.40365
H          2.11245       -1.72302       -0.16405
H          3.22375       -2.46688        3.07661
H          2.88591       -3.00438        1.43897
H          5.10778       -3.88929        1.12930
H          4.39298       -4.56950        2.59046
H          6.75479       -3.88315        2.95498
H          5.66476       -2.97333        3.99767
H          6.83478       -2.08753        1.32174
H          7.32051       -1.48188        2.89759
H          5.50326        1.31351        1.35839
H          7.05508        0.56332        1.63579
H          6.05989        0.03340        0.26868
H          4.65756       -0.86131        4.28333
H          6.02768        0.23687        4.06380
H          4.40884        0.71705        3.54697

--Link1--
%chk=JID_2468.chk
%mem=8GB
%nprocshared=4
# B3LYP/6-311++G(d,p) empiricaldispersion=gd3bj scf=xqc pop=npa geom=check

CID_68219020_JID_2468_Energie_neutraal

0 1

--Link1--
%chk=JID_2468.chk
%mem=8GB
%nprocshared=4
# B3LYP/6-311++G(d,p) empiricaldispersion=gd3bj scf=xqc pop=npa geom=check

CID_68219020_JID_2468_Energie_kation

1 2

--Link1--
%chk=JID_2468.chk
%mem=8GB
%nprocshared=4
# B3LYP/6-311++G(d,p) empiricaldispersion=gd3bj scf=xqc pop=npa geom=check

CID_68219020_JID_2468_Energie_anion

-1 2
