%chk=JID_6922.chk
%mem=8GB
%nprocshared=4
# opt freq B3LYP/6-31G(d) empiricaldispersion=gd3bj scf=xqc

CID_61619330_JID_6922_neutraal

0 1
C          0.99036       -0.08627        0.04964
C          0.49183        0.78171       -1.09689
C          0.57025        0.12159       -2.49615
C         -0.16897       -1.27100       -2.58996
C         -1.68702       -1.37671       -2.50521
C         -2.54897       -0.27297       -2.44377
C         -3.93499       -0.42989       -2.30741
C         -4.47942       -1.71079       -2.24773
C         -3.64361       -2.82472       -2.31412
C         -2.26395       -2.65804       -2.43577
O         -4.63751        0.74352       -2.24609
C         -6.02624        0.64500       -1.95978
O          0.36301       -2.15954       -3.59753
C          0.44516       -1.73706       -4.94830
C         -0.89753       -1.54258       -5.62663
N          0.14041        1.15945       -3.45690
H          0.29006       -0.89436        0.27934
H          1.09214        0.51797        0.95732
H          1.96887       -0.51987       -0.17853
H         -0.53088        1.10321       -0.86971
H          1.10330        1.69459       -1.10496
H          1.62999       -0.07395       -2.70833
H          0.14681       -1.79382       -1.67923
H         -2.16241        0.74083       -2.49683
H         -5.54667       -1.87690       -2.15299
H         -4.06504       -3.82525       -2.26822
H         -1.62638       -3.54011       -2.48086
H         -6.56066        0.14373       -2.77316
H         -6.19965        0.14198       -1.00245
H         -6.42318        1.66141       -1.87718
H          1.09061       -0.86115       -5.04657
H          0.96853       -2.54086       -5.47911
H         -1.43584       -0.68253       -5.22199
H         -0.76081       -1.37394       -6.69918
H         -1.53271       -2.42352       -5.49109
H          0.78735        1.94634       -3.42339
H          0.15875        0.80866       -4.40866

--Link1--
%chk=JID_6922.chk
%mem=8GB
%nprocshared=4
# B3LYP/6-311++G(d,p) empiricaldispersion=gd3bj scf=xqc pop=npa geom=check

CID_61619330_JID_6922_Energie_neutraal

0 1

--Link1--
%chk=JID_6922.chk
%mem=8GB
%nprocshared=4
# B3LYP/6-311++G(d,p) empiricaldispersion=gd3bj scf=xqc pop=npa geom=check

CID_61619330_JID_6922_Energie_kation

1 2

--Link1--
%chk=JID_6922.chk
%mem=8GB
%nprocshared=4
# B3LYP/6-311++G(d,p) empiricaldispersion=gd3bj scf=xqc pop=npa geom=check

CID_61619330_JID_6922_Energie_anion

-1 2
