%chk=JID_10582.chk
%mem=8GB
%nprocshared=4
# opt freq B3LYP/6-31G(d) empiricaldispersion=gd3bj scf=xqc

CID_79213653_JID_10582_neutraal

0 1
C         -2.57700       -0.70400        0.00100
C         -1.72701        0.53202       -0.30654
C         -0.27109        0.18444       -0.11953
C          0.81629        0.95590       -0.52561
C          2.10892        0.50420       -0.25326
C          2.31010       -0.69399        0.44209
C          1.21966       -1.44675        0.88178
C         -0.06113       -0.99456        0.60216
S         -1.57189       -1.79565        1.06144
C         -2.12749        1.18161       -1.61913
O         -2.90808        2.14550       -1.57994
N         -1.69676        0.81777       -2.85529
C         -0.94959       -0.23813       -3.30510
C         -0.60480       -1.47589       -2.82990
C          0.27254       -2.16508       -3.72222
C          0.54944       -1.43503       -4.86215
S         -0.31498        0.04303       -4.86342
C          1.41163       -1.75929       -5.97179
O          1.65523       -1.10081       -6.97316
O          2.00264       -2.96489       -5.80393
H         -2.86895       -1.24865       -0.90203
H         -3.49997       -0.42659        0.52103
H         -1.93747        1.28123        0.47288
H          0.67444        1.89466       -1.05468
H          2.96584        1.08948       -0.57947
H          3.32180       -1.03524        0.64790
H          1.37670       -2.37055        1.43003
H         -1.94081        1.50064       -3.56506
H         -0.93828       -1.91409       -1.90444
H          0.68643       -3.14835       -3.52830
H          2.55688       -3.05256       -6.60656

--Link1--
%chk=JID_10582.chk
%mem=8GB
%nprocshared=4
# B3LYP/6-311++G(d,p) empiricaldispersion=gd3bj scf=xqc pop=npa geom=check

CID_79213653_JID_10582_Energie_neutraal

0 1

--Link1--
%chk=JID_10582.chk
%mem=8GB
%nprocshared=4
# B3LYP/6-311++G(d,p) empiricaldispersion=gd3bj scf=xqc pop=npa geom=check

CID_79213653_JID_10582_Energie_kation

1 2

--Link1--
%chk=JID_10582.chk
%mem=8GB
%nprocshared=4
# B3LYP/6-311++G(d,p) empiricaldispersion=gd3bj scf=xqc pop=npa geom=check

CID_79213653_JID_10582_Energie_anion

-1 2
