%chk=JID_3984.chk
%mem=8GB
%nprocshared=4
# opt freq B3LYP/6-31G(d) empiricaldispersion=gd3bj scf=xqc

CID_148608582_JID_3984_neutraal

0 1
C          0.94941        0.05738       -0.06441
C          0.26401        1.41350        0.09191
C          0.59292        2.33958       -1.08005
N         -1.21708        1.27292        0.26803
C         -1.86871        1.73098        1.42086
N         -3.23296        1.88961        1.39729
C         -4.06333        2.13733        2.57587
N         -1.16691        1.98459        2.58136
C         -0.41404        0.88816        3.19242
C         -1.18199        3.28891        3.17703
O         -1.74154        4.21310        2.60335
C         -0.47344        3.47292        4.48824
C         -2.00660        0.76943       -0.87181
H          0.67302       -0.43428       -1.00201
H          0.67620       -0.61626        0.75273
H          2.03823        0.17401       -0.05942
H          0.67426        1.89824        0.98218
H          0.27647        1.91421       -2.03749
H          0.08478        3.30214       -0.95973
H          1.67036        2.52672       -1.13532
H         -3.70765        1.79589        0.51146
H         -4.18405        3.21263        2.71999
H         -5.04583        1.69159        2.39653
H         -3.63229        1.65901        3.45883
H          0.65481        1.11736        3.18622
H         -0.75849        0.73594        4.21933
H         -0.58887       -0.04482        2.64894
H         -0.92897        2.83809        5.25167
H          0.58870        3.24333        4.37778
H         -0.56964        4.51500        4.80774
H         -2.49708        1.61089       -1.36859
H         -1.36720        0.25928       -1.59585
H         -2.74216        0.04401       -0.51237

--Link1--
%chk=JID_3984.chk
%mem=8GB
%nprocshared=4
# B3LYP/6-311++G(d,p) empiricaldispersion=gd3bj scf=xqc pop=npa geom=check

CID_148608582_JID_3984_Energie_neutraal

0 1

--Link1--
%chk=JID_3984.chk
%mem=8GB
%nprocshared=4
# B3LYP/6-311++G(d,p) empiricaldispersion=gd3bj scf=xqc pop=npa geom=check

CID_148608582_JID_3984_Energie_kation

1 2

--Link1--
%chk=JID_3984.chk
%mem=8GB
%nprocshared=4
# B3LYP/6-311++G(d,p) empiricaldispersion=gd3bj scf=xqc pop=npa geom=check

CID_148608582_JID_3984_Energie_anion

-1 2
