%chk=JID_1244.chk
%mem=8GB
%nprocshared=4
# opt freq B3LYP/6-31G(d) empiricaldispersion=gd3bj scf=xqc

CID_152605744_JID_1244_neutraal

0 1
C          0.94414        0.07887       -0.02566
N          0.56108        0.64179       -1.35659
C          0.79677        1.91323       -1.86609
C         -0.00065        2.21450       -2.91458
C         -0.93258        1.06411       -3.14168
N         -0.58694        0.12142       -2.01013
N         -0.63524       -1.23477       -2.17916
N         -1.57142       -1.66670       -2.88067
N         -2.42595       -2.05398       -3.52955
C          0.05011        3.50429       -3.71723
N          0.09222        4.57429       -4.38310
H          1.02538       -1.01047       -0.08016
H          0.19192        0.35184        0.72023
H          1.91403        0.48282        0.27989
H          1.57087        2.52207       -1.41909
H         -0.73232        0.57870       -4.10191
H         -1.98480        1.34313       -3.04279

--Link1--
%chk=JID_1244.chk
%mem=8GB
%nprocshared=4
# B3LYP/6-311++G(d,p) empiricaldispersion=gd3bj scf=xqc pop=npa geom=check

CID_152605744_JID_1244_Energie_neutraal

0 1

--Link1--
%chk=JID_1244.chk
%mem=8GB
%nprocshared=4
# B3LYP/6-311++G(d,p) empiricaldispersion=gd3bj scf=xqc pop=npa geom=check

CID_152605744_JID_1244_Energie_kation

1 2

--Link1--
%chk=JID_1244.chk
%mem=8GB
%nprocshared=4
# B3LYP/6-311++G(d,p) empiricaldispersion=gd3bj scf=xqc pop=npa geom=check

CID_152605744_JID_1244_Energie_anion

-1 2
