%chk=JID_5346.chk
%mem=8GB
%nprocshared=4
# opt freq B3LYP/6-31G(d) empiricaldispersion=gd3bj scf=xqc

CID_130543783_JID_5346_neutraal

0 1
C          1.02573        0.03675        0.08937
C          0.60139        1.45040       -0.05879
C         -0.53319        1.90943       -0.69471
N         -0.51931        3.27010       -0.58787
N          0.53327        3.72655        0.11008
C          1.26042        2.63256        0.41118
C          2.53646        2.75730        1.12984
O          3.06498        3.79970        1.49809
O          3.17010        1.58502        1.38456
C         -1.54984        4.18166       -1.06858
C         -2.24015        4.98285        0.03098
C         -1.09634        4.98782       -2.28071
O         -1.45719        4.64758       -3.41522
N         -0.33641        6.11628       -2.19581
C          0.54036        6.53405       -1.12512
H          0.29880       -0.64362       -0.36667
H          1.11415       -0.23057        1.14703
H          1.99062       -0.13005       -0.39952
H         -1.32967        1.38592       -1.20674
H          3.97941        1.88673        1.84608
H         -2.33777        3.52504       -1.46943
H         -1.54093        5.46574        0.71705
H         -2.89113        5.75427       -0.39320
H         -2.86042        4.31871        0.64444
H         -0.10842        6.47328       -3.11648
H          1.45557        5.93914       -1.17057
H          0.79094        7.58572       -1.28681
H          0.07076        6.42773       -0.15109

--Link1--
%chk=JID_5346.chk
%mem=8GB
%nprocshared=4
# B3LYP/6-311++G(d,p) empiricaldispersion=gd3bj scf=xqc pop=npa geom=check

CID_130543783_JID_5346_Energie_neutraal

0 1

--Link1--
%chk=JID_5346.chk
%mem=8GB
%nprocshared=4
# B3LYP/6-311++G(d,p) empiricaldispersion=gd3bj scf=xqc pop=npa geom=check

CID_130543783_JID_5346_Energie_kation

1 2

--Link1--
%chk=JID_5346.chk
%mem=8GB
%nprocshared=4
# B3LYP/6-311++G(d,p) empiricaldispersion=gd3bj scf=xqc pop=npa geom=check

CID_130543783_JID_5346_Energie_anion

-1 2
