%chk=JID_7038.chk
%mem=8GB
%nprocshared=4
# opt freq B3LYP/6-31G(d) empiricaldispersion=gd3bj scf=xqc

CID_143168955_JID_7038_neutraal

0 1
C          0.92382       -0.06073       -0.02255
C          1.66125        0.76130       -1.02153
C          2.51951        0.39398       -2.00518
C          3.01450        1.62067       -2.61144
C          2.46387        2.69887       -2.04567
C          1.52689        2.27288       -0.97019
C          2.81580        4.03389       -2.50034
C          2.27492        5.19363       -1.93860
C          2.65838        6.44896       -2.42054
C          3.58110        6.55491       -3.46328
C          4.12736        5.40493       -4.03303
C          3.74628        4.14782       -3.55353
C          4.32795        2.90995       -4.16219
O          5.13449        2.96265       -5.08421
N          3.90872        1.70546       -3.63185
C          2.94020       -0.95033       -2.32599
C          2.11515       -1.98278       -2.54028
H         -0.15351       -0.00003       -0.20507
H          1.12238        0.30875        0.98892
H          1.21415       -1.11395       -0.04159
H          0.49810        2.57976       -1.18433
H          1.83724        2.65840        0.00642
H          1.55531        5.13858       -1.12610
H          2.23565        7.34953       -1.98062
H          3.87494        7.53453       -3.83287
H          4.84562        5.48711       -4.84563
H          4.28814        0.86772       -4.05162
H          4.01230       -1.09922       -2.43661
H          2.50918       -2.96078       -2.79746
H          1.03641       -1.87927       -2.47872

--Link1--
%chk=JID_7038.chk
%mem=8GB
%nprocshared=4
# B3LYP/6-311++G(d,p) empiricaldispersion=gd3bj scf=xqc pop=npa geom=check

CID_143168955_JID_7038_Energie_neutraal

0 1

--Link1--
%chk=JID_7038.chk
%mem=8GB
%nprocshared=4
# B3LYP/6-311++G(d,p) empiricaldispersion=gd3bj scf=xqc pop=npa geom=check

CID_143168955_JID_7038_Energie_kation

1 2

--Link1--
%chk=JID_7038.chk
%mem=8GB
%nprocshared=4
# B3LYP/6-311++G(d,p) empiricaldispersion=gd3bj scf=xqc pop=npa geom=check

CID_143168955_JID_7038_Energie_anion

-1 2
