%chk=JID_198.chk
%mem=8GB
%nprocshared=4
# opt freq B3LYP/6-31G(d) empiricaldispersion=gd3bj scf=xqc

CID_84107064_JID_198_neutraal

0 1
C          0.93704       -0.06099       -0.04813
N          0.46917       -1.22253       -0.79316
C          1.53991       -2.00672       -1.42925
C          2.41430       -2.86394       -0.48295
N          1.65069       -3.42347        0.62819
C          0.42279       -2.97509        1.02983
O         -0.04542       -3.35660        2.10125
C         -0.37043       -2.10102        0.05203
C          3.65871       -2.09540        0.02280
N          4.49058       -2.91450        0.91564
H          1.43452       -0.32063        0.89062
H          0.08883        0.58734        0.19960
H          1.62195        0.54239       -0.65369
H          1.04764       -2.69279       -2.13275
H          2.16547       -1.36245       -2.05956
H          2.77385       -3.73191       -1.05123
H          2.12234       -4.05199        1.26521
H         -1.09377       -1.50374        0.61938
H         -0.94734       -2.77561       -0.59197
H          4.26673       -1.78676       -0.83473
H          3.37968       -1.19074        0.56728
H          5.33112       -2.39008        1.16050
H          3.99257       -3.04943        1.79636

--Link1--
%chk=JID_198.chk
%mem=8GB
%nprocshared=4
# B3LYP/6-311++G(d,p) empiricaldispersion=gd3bj scf=xqc pop=npa geom=check

CID_84107064_JID_198_Energie_neutraal

0 1

--Link1--
%chk=JID_198.chk
%mem=8GB
%nprocshared=4
# B3LYP/6-311++G(d,p) empiricaldispersion=gd3bj scf=xqc pop=npa geom=check

CID_84107064_JID_198_Energie_kation

1 2

--Link1--
%chk=JID_198.chk
%mem=8GB
%nprocshared=4
# B3LYP/6-311++G(d,p) empiricaldispersion=gd3bj scf=xqc pop=npa geom=check

CID_84107064_JID_198_Energie_anion

-1 2
