%chk=JID_9791.chk
%mem=8GB
%nprocshared=4
# opt freq B3LYP/6-31G(d) empiricaldispersion=gd3bj scf=xqc

CID_105348033_JID_9791_neutraal

0 1
C          0.92318        0.05946        0.02375
C          1.19834        1.54585       -0.16925
C          2.66729        1.82227       -0.47100
O          0.34580        2.16331       -1.13626
C          0.24848        1.52264       -2.40887
C         -0.46340        2.44885       -3.41827
N          0.44450        3.28998       -4.21837
C         -0.26456        3.92614       -5.32610
C          1.25769        4.24223       -3.44573
C          0.57519        5.48754       -2.91631
C          0.71788        6.71112       -3.58776
C          0.13879        7.87774       -3.08149
C         -0.60120        7.84623       -1.89429
C         -0.76375        6.62381       -1.23294
C         -0.17512        5.46093       -1.73505
C         -1.18793        9.11596       -1.32104
C         -0.52444        9.56099       -0.00533
N          0.88175        9.93733       -0.19864
C          1.52020       10.24267        1.07431
H          1.21574       -0.52295       -0.85628
H         -0.14492       -0.11636        0.18909
H          1.47777       -0.33141        0.88286
H          0.96400        2.04728        0.77737
H          2.98876        1.34459       -1.40135
H          2.83632        2.89785       -0.58803
H          3.30835        1.45802        0.33801
H          1.23130        1.22299       -2.78728
H         -0.36018        0.61948       -2.28746
H         -0.98856        1.78494       -4.11758
H         -1.22752        3.05296       -2.91629
H         -1.07805        4.57716       -4.98764
H          0.42288        4.51436       -5.94420
H         -0.69675        3.16657       -5.98760
H          1.76937        3.73997       -2.61837
H          2.08763        4.55886       -4.09316
H          1.29709        6.76620       -4.50692
H          0.28361        8.81566       -3.61346
H         -1.33841        6.56648       -0.31156
H         -0.29926        4.53281       -1.18411
H         -1.12640        9.92769       -2.05732
H         -2.25866        8.95030       -1.14585
H         -1.07665       10.42547        0.38210
H         -0.60347        8.75832        0.73815
H          1.37227        9.15538       -0.63811
H          1.51593        9.37618        1.74387
H          2.56267       10.52663        0.90035
H          1.02750       11.08335        1.57307

--Link1--
%chk=JID_9791.chk
%mem=8GB
%nprocshared=4
# B3LYP/6-311++G(d,p) empiricaldispersion=gd3bj scf=xqc pop=npa geom=check

CID_105348033_JID_9791_Energie_neutraal

0 1

--Link1--
%chk=JID_9791.chk
%mem=8GB
%nprocshared=4
# B3LYP/6-311++G(d,p) empiricaldispersion=gd3bj scf=xqc pop=npa geom=check

CID_105348033_JID_9791_Energie_kation

1 2

--Link1--
%chk=JID_9791.chk
%mem=8GB
%nprocshared=4
# B3LYP/6-311++G(d,p) empiricaldispersion=gd3bj scf=xqc pop=npa geom=check

CID_105348033_JID_9791_Energie_anion

-1 2
