%chk=JID_3793.chk
%mem=8GB
%nprocshared=4
# opt freq B3LYP/6-31G(d) empiricaldispersion=gd3bj scf=xqc

CID_63150347_JID_3793_neutraal

0 1
C          0.91514        0.03719       -0.03763
C          0.13887       -1.24831        0.27045
C          0.66907       -1.95813        1.52690
N          0.45860       -1.19955        2.76362
C         -0.52968       -1.60520        3.60314
N         -1.60482       -0.93984        3.96014
N         -2.30394       -1.76109        4.81340
N         -1.65836       -2.90137        5.01341
N         -0.53220       -2.79484        4.28777
C          0.48058       -3.80764        4.36452
C         -1.37120       -0.98885        0.33886
O         -1.82205       -0.55690       -0.94699
C         -3.21139       -0.25306       -0.93749
H          0.71868        0.82040        0.70109
H          0.63790        0.43338       -1.02033
H          1.99329       -0.15418       -0.05349
H          0.32135       -1.92188       -0.57880
H          0.21866       -2.95695        1.58848
H          1.74799       -2.11993        1.41777
H          0.40648       -0.19790        2.57930
H          0.51854       -4.19875        5.38475
H          0.22249       -4.60574        3.66468
H          1.45277       -3.37985        4.10948
H         -1.90135       -1.90969        0.60872
H         -1.60109       -0.21403        1.07907
H         -3.79605       -1.13808       -0.66960
H         -3.42071        0.56297       -0.23940
H         -3.50116        0.06579       -1.94220

--Link1--
%chk=JID_3793.chk
%mem=8GB
%nprocshared=4
# B3LYP/6-311++G(d,p) empiricaldispersion=gd3bj scf=xqc pop=npa geom=check

CID_63150347_JID_3793_Energie_neutraal

0 1

--Link1--
%chk=JID_3793.chk
%mem=8GB
%nprocshared=4
# B3LYP/6-311++G(d,p) empiricaldispersion=gd3bj scf=xqc pop=npa geom=check

CID_63150347_JID_3793_Energie_kation

1 2

--Link1--
%chk=JID_3793.chk
%mem=8GB
%nprocshared=4
# B3LYP/6-311++G(d,p) empiricaldispersion=gd3bj scf=xqc pop=npa geom=check

CID_63150347_JID_3793_Energie_anion

-1 2
