%chk=JID_9232.chk
%mem=8GB
%nprocshared=4
# opt freq B3LYP/6-31G(d) empiricaldispersion=gd3bj scf=xqc

CID_114335770_JID_9232_neutraal

0 1
C          0.93359        0.07429       -0.00846
C         -0.22153        0.15698        0.98050
C          0.20600        0.64004        2.37972
C          0.58922        2.11667        2.37737
C         -0.89438        0.23469        3.37385
O         -0.85596       -0.87025        3.92078
N         -2.02142        1.06729        3.40944
C         -3.30965        0.36550        3.51193
C         -4.34607        0.89705        2.53259
C         -4.82962        2.31178        2.83973
C         -3.71353        3.37074        2.74491
C         -2.82280        3.33717        3.98979
C         -2.77276        4.43185        4.88013
C         -1.91631        4.44350        5.98220
C         -1.08246        3.36139        6.22061
C         -1.11016        2.26639        5.35926
C         -1.97383        2.23761        4.24627
N         -4.32369        4.70176        2.53802
C         -4.58798        4.99010        1.13636
H          1.35100        1.06257       -0.22114
H          0.58628       -0.34991       -0.95607
H          1.73422       -0.56582        0.37519
H         -1.00221        0.81288        0.57584
H         -0.67165       -0.84101        1.05736
H          1.09834        0.08023        2.69214
H         -0.22586        2.74968        2.01201
H          0.86511        2.45403        3.38037
H          1.45709        2.29556        1.73467
H         -3.67516        0.40001        4.54662
H         -3.15996       -0.69547        3.27553
H         -3.94367        0.86240        1.51236
H         -5.21496        0.22769        2.55028
H         -5.62438        2.53010        2.11551
H         -5.30371        2.33641        3.82991
H         -3.05808        3.16086        1.88845
H         -3.39429        5.30948        4.71481
H         -1.90022        5.30335        6.64697
H         -0.41682        3.36234        7.07958
H         -0.46976        1.41926        5.59529
H         -5.18741        4.76562        3.07482
H         -5.28544        4.27573        0.68970
H         -5.03254        5.98667        1.05072
H         -3.66136        4.99723        0.55348

--Link1--
%chk=JID_9232.chk
%mem=8GB
%nprocshared=4
# B3LYP/6-311++G(d,p) empiricaldispersion=gd3bj scf=xqc pop=npa geom=check

CID_114335770_JID_9232_Energie_neutraal

0 1

--Link1--
%chk=JID_9232.chk
%mem=8GB
%nprocshared=4
# B3LYP/6-311++G(d,p) empiricaldispersion=gd3bj scf=xqc pop=npa geom=check

CID_114335770_JID_9232_Energie_kation

1 2

--Link1--
%chk=JID_9232.chk
%mem=8GB
%nprocshared=4
# B3LYP/6-311++G(d,p) empiricaldispersion=gd3bj scf=xqc pop=npa geom=check

CID_114335770_JID_9232_Energie_anion

-1 2
