%chk=JID_7843.chk
%mem=8GB
%nprocshared=4
# opt freq B3LYP/6-31G(d) empiricaldispersion=gd3bj scf=xqc

CID_112706499_JID_7843_neutraal

0 1
C          0.94047       -0.06401        0.04857
C          0.40616       -0.70936       -1.24660
C          1.04867       -2.10493       -1.37632
C         -1.11987       -0.88328       -1.12130
C          0.71110        0.17806       -2.44515
C          1.17437       -0.20120       -3.69221
S          1.29738        1.15416       -4.72978
C          0.71988        2.16629       -3.46308
N          0.46859        1.54185       -2.32833
C          0.54214        3.65545       -3.70159
C          1.18992        4.50344       -2.55500
N          0.27762        5.57879       -2.04930
C         -0.16668        6.37006       -3.22970
C         -0.87366        5.49449       -4.30226
N         -0.89811        4.05100       -3.92823
C         -1.60458        3.98583       -2.61336
C         -0.92615        4.86793       -1.52789
H          0.74565       -0.69994        0.91976
H          0.46980        0.90726        0.24105
H          2.02261        0.10208       -0.01067
H          0.84687       -2.71796       -0.49017
H          0.65814       -2.65048       -2.24320
H          2.13684       -2.03389       -1.48980
H         -1.62240        0.08214       -0.98787
H         -1.54082       -1.34803       -2.02077
H         -1.37977       -1.51521       -0.26458
H          1.43102       -1.18797       -4.04840
H          1.08292        3.90236       -4.62725
H          1.50614        3.88421       -1.70613
H          2.10482        4.97867       -2.93290
H         -0.84382        7.16628       -2.89662
H          0.70204        6.87123       -3.67438
H         -0.37161        5.61238       -5.27055
H         -1.90246        5.84663       -4.45010
H         -1.67868        2.94902       -2.26831
H         -2.64139        4.31797       -2.75426
H         -0.63797        4.24799       -0.66974
H         -1.64254        5.60631       -1.14694

--Link1--
%chk=JID_7843.chk
%mem=8GB
%nprocshared=4
# B3LYP/6-311++G(d,p) empiricaldispersion=gd3bj scf=xqc pop=npa geom=check

CID_112706499_JID_7843_Energie_neutraal

0 1

--Link1--
%chk=JID_7843.chk
%mem=8GB
%nprocshared=4
# B3LYP/6-311++G(d,p) empiricaldispersion=gd3bj scf=xqc pop=npa geom=check

CID_112706499_JID_7843_Energie_kation

1 2

--Link1--
%chk=JID_7843.chk
%mem=8GB
%nprocshared=4
# B3LYP/6-311++G(d,p) empiricaldispersion=gd3bj scf=xqc pop=npa geom=check

CID_112706499_JID_7843_Energie_anion

-1 2
