%chk=JID_9870.chk
%mem=8GB
%nprocshared=4
# opt freq B3LYP/6-31G(d) empiricaldispersion=gd3bj scf=xqc

CID_65044493_JID_9870_neutraal

0 1
C          1.06326        0.04258       -0.06469
C          0.20941       -0.07992        1.17136
O         -0.44742        0.88369        1.56553
N          0.21228       -1.30894        1.82429
C         -0.36221       -1.37370        3.16336
C          0.75847       -1.24576        4.19603
C          1.84650       -2.31786        3.96740
C          2.33091       -2.29793        2.50302
C          1.15285       -2.38419        1.53688
N          2.95011       -2.03484        4.87841
C          3.67834       -3.12906        5.49132
C          3.71016       -4.50596        4.82779
C          4.80954       -5.26721        5.56635
C          5.68010       -4.22470        6.27212
C          5.14648       -2.85423        5.85253
S          6.16312       -2.06996        4.59730
O          5.44236       -0.92112        4.07709
O          7.48318       -1.88504        5.17530
C          6.36121       -3.20722        3.24563
H          0.94213        1.04452       -0.48838
H          0.74502       -0.68238       -0.81830
H          2.11827       -0.09420        0.18503
H         -0.87763       -2.33582        3.26663
H         -1.10582       -0.58457        3.31366
H          0.33932       -1.34126        5.20502
H          1.19941       -0.24226        4.12256
H          1.39046       -3.29002        4.19050
H          2.88678       -1.37143        2.30682
H          3.01431       -3.12767        2.30377
H          1.50726       -2.34426        0.50440
H          0.62396       -3.33695        1.65902
H          3.55465       -1.28280        4.52243
H          3.16330       -3.28881        6.45100
H          2.75161       -5.02881        4.91451
H          3.95115       -4.45521        3.76591
H          5.39611       -5.87626        4.87070
H          4.37486       -5.95072        6.30470
H          6.74219       -4.37170        6.05411
H          5.55932       -4.34445        7.35599
H          5.19685       -2.15860        6.70045
H          6.73423       -4.16218        3.61373
H          5.41527       -3.31749        2.71891
H          7.09506       -2.77671        2.55916

--Link1--
%chk=JID_9870.chk
%mem=8GB
%nprocshared=4
# B3LYP/6-311++G(d,p) empiricaldispersion=gd3bj scf=xqc pop=npa geom=check

CID_65044493_JID_9870_Energie_neutraal

0 1

--Link1--
%chk=JID_9870.chk
%mem=8GB
%nprocshared=4
# B3LYP/6-311++G(d,p) empiricaldispersion=gd3bj scf=xqc pop=npa geom=check

CID_65044493_JID_9870_Energie_kation

1 2

--Link1--
%chk=JID_9870.chk
%mem=8GB
%nprocshared=4
# B3LYP/6-311++G(d,p) empiricaldispersion=gd3bj scf=xqc pop=npa geom=check

CID_65044493_JID_9870_Energie_anion

-1 2
