%chk=JID_5809.chk
%mem=8GB
%nprocshared=4
# opt freq B3LYP/6-31G(d) empiricaldispersion=gd3bj scf=xqc

CID_150317175_JID_5809_neutraal

0 1
C          0.93981        0.07750        0.01925
C          0.75853       -0.19013        1.51050
C          1.15224        1.00680        2.40902
C          0.34982        2.29768        2.06605
C         -1.17494        2.19088        1.89601
C         -2.00330        1.92345        3.15527
C         -1.88913        2.98277        4.26898
C         -2.35184        4.36589        3.80881
C         -2.70790        2.54187        5.48538
C          1.17602        0.69463        3.94978
C          1.26745       -0.79867        4.29384
C          2.35379        1.40837        4.65745
N          2.14992        2.85967        4.65707
N          3.18224        3.55103        4.70130
N          4.13032        4.18217        4.73734
H          0.26069        0.85079       -0.34835
H          0.73657       -0.83540       -0.55022
H          1.96642        0.38825       -0.19961
H         -0.27323       -0.50077        1.70796
H          1.39713       -1.04945        1.74351
H          2.19375        1.23493        2.13668
H          0.57623        3.09539        2.77742
H          0.74195        2.67088        1.10959
H         -1.52557        3.12485        1.43956
H         -1.41681        1.41674        1.16027
H         -3.05623        1.84963        2.85057
H         -1.74678        0.93422        3.55076
H         -0.84616        3.06709        4.59131
H         -3.37532        4.33411        3.42046
H         -2.32827        5.07928        4.63981
H         -1.70004        4.76270        3.02466
H         -2.36227        1.57069        5.85525
H         -2.60898        3.26334        6.30345
H         -3.77142        2.45320        5.23870
H          0.25223        1.05583        4.40635
H          2.18384       -1.24686        3.89578
H          1.27307       -0.94552        5.37994
H          0.40470       -1.35047        3.90771
H          2.41814        1.07841        5.70166
H          3.30110        1.13653        4.17303

--Link1--
%chk=JID_5809.chk
%mem=8GB
%nprocshared=4
# B3LYP/6-311++G(d,p) empiricaldispersion=gd3bj scf=xqc pop=npa geom=check

CID_150317175_JID_5809_Energie_neutraal

0 1

--Link1--
%chk=JID_5809.chk
%mem=8GB
%nprocshared=4
# B3LYP/6-311++G(d,p) empiricaldispersion=gd3bj scf=xqc pop=npa geom=check

CID_150317175_JID_5809_Energie_kation

1 2

--Link1--
%chk=JID_5809.chk
%mem=8GB
%nprocshared=4
# B3LYP/6-311++G(d,p) empiricaldispersion=gd3bj scf=xqc pop=npa geom=check

CID_150317175_JID_5809_Energie_anion

-1 2
