%chk=JID_5630.chk
%mem=8GB
%nprocshared=4
# opt freq B3LYP/6-31G(d) empiricaldispersion=gd3bj scf=xqc

CID_115728248_JID_5630_neutraal

0 1
C          1.07587       -0.05075       -0.04084
C          0.24056       -1.15766       -0.67177
C          0.89647       -2.54928       -0.58282
C          1.05052       -3.01090        0.86991
N          0.04612       -3.47655       -1.34172
C          0.77227       -4.65299       -1.81979
C         -0.14516       -5.60384       -2.55650
C         -0.23129       -6.95167       -2.17674
C         -1.05783       -7.85808       -2.86709
C         -1.81724       -7.39554       -3.95753
C         -1.72109       -6.05299       -4.34686
C         -0.89398       -5.16686       -3.65461
S         -2.89023       -8.47814       -4.89908
C         -4.49166       -7.85079       -4.33042
C         -1.09731       -9.29345       -2.41633
H          1.14590       -0.16834        1.04429
H          0.61567        0.92317       -0.23696
H          2.08834       -0.03625       -0.45626
H         -0.75016       -1.16959       -0.19955
H          0.08334       -0.89966       -1.72751
H          1.88792       -2.48600       -1.04917
H          0.08682       -3.01738        1.39147
H          1.47232       -4.01905        0.93140
H          1.72823       -2.35285        1.42258
H         -0.74383       -3.77875       -0.77258
H          1.24253       -5.18023       -0.98253
H          1.57225       -4.35457       -2.50849
H          0.35910       -7.30538       -1.33306
H         -2.28443       -5.68404       -5.20072
H         -0.83416       -4.12800       -3.97395
H         -4.56538       -7.91979       -3.24153
H         -4.63363       -6.81164       -4.63899
H         -5.28947       -8.45433       -4.77147
H         -0.75382       -9.95589       -3.21737
H         -0.44355       -9.46139       -1.55353
H         -2.11172       -9.57265       -2.11405

--Link1--
%chk=JID_5630.chk
%mem=8GB
%nprocshared=4
# B3LYP/6-311++G(d,p) empiricaldispersion=gd3bj scf=xqc pop=npa geom=check

CID_115728248_JID_5630_Energie_neutraal

0 1

--Link1--
%chk=JID_5630.chk
%mem=8GB
%nprocshared=4
# B3LYP/6-311++G(d,p) empiricaldispersion=gd3bj scf=xqc pop=npa geom=check

CID_115728248_JID_5630_Energie_kation

1 2

--Link1--
%chk=JID_5630.chk
%mem=8GB
%nprocshared=4
# B3LYP/6-311++G(d,p) empiricaldispersion=gd3bj scf=xqc pop=npa geom=check

CID_115728248_JID_5630_Energie_anion

-1 2
