%chk=JID_3769.chk
%mem=8GB
%nprocshared=4
# opt freq B3LYP/6-31G(d) empiricaldispersion=gd3bj scf=xqc

CID_131081510_JID_3769_neutraal

0 1
C          1.06073       -0.07902        0.00827
C          0.55406       -0.32717       -1.40315
C          0.11944       -0.54004       -2.61387
C         -0.38723       -0.78820       -4.02529
N         -0.26852        0.44593       -4.79460
C         -0.92590        0.35558       -6.11131
C         -1.04370        1.78150       -6.68490
C         -1.46299        1.78407       -8.15952
C         -0.84818        0.61261       -8.93717
C         -1.73878       -0.63192       -8.93221
C         -1.15373       -1.50767       -7.83618
C         -0.18270       -0.57564       -7.12418
O          0.33372        0.19964       -8.22964
H          0.70019       -0.86492        0.67775
H          0.70091        0.88853        0.36913
H          2.15423       -0.07785        0.01736
H          0.20385       -1.59526       -4.46914
H         -1.43116       -1.11518       -3.95716
H         -0.68913        1.20141       -4.25456
H         -1.94663       -0.01480       -5.94668
H         -1.74868        2.38219       -6.09727
H         -0.07076        2.28749       -6.60702
H         -1.11823        2.72713       -8.60221
H         -2.55458        1.78988       -8.25638
H         -0.59203        0.91677       -9.95685
H         -1.67428       -1.15433       -9.89361
H         -2.79519       -0.39995       -8.76444
H         -0.59821       -2.33179       -8.30048
H         -1.91042       -1.94771       -7.18042
H          0.63930       -1.13198       -6.66479

--Link1--
%chk=JID_3769.chk
%mem=8GB
%nprocshared=4
# B3LYP/6-311++G(d,p) empiricaldispersion=gd3bj scf=xqc pop=npa geom=check

CID_131081510_JID_3769_Energie_neutraal

0 1

--Link1--
%chk=JID_3769.chk
%mem=8GB
%nprocshared=4
# B3LYP/6-311++G(d,p) empiricaldispersion=gd3bj scf=xqc pop=npa geom=check

CID_131081510_JID_3769_Energie_kation

1 2

--Link1--
%chk=JID_3769.chk
%mem=8GB
%nprocshared=4
# B3LYP/6-311++G(d,p) empiricaldispersion=gd3bj scf=xqc pop=npa geom=check

CID_131081510_JID_3769_Energie_anion

-1 2
