%chk=JID_10692.chk
%mem=8GB
%nprocshared=4
# opt freq B3LYP/6-31G(d) empiricaldispersion=gd3bj scf=xqc

CID_150123968_JID_10692_neutraal

0 1
C          0.90214       -0.01684        0.01182
C          0.85478        0.20422       -1.49186
C          1.17016       -1.05271       -2.30666
C          0.25466       -2.25631       -2.05024
C         -1.22951       -1.97509       -2.26867
O         -1.42701       -1.53211       -3.61832
C         -2.65689       -1.00024       -3.87819
O         -3.52353       -0.85685       -3.02712
C         -2.72941       -0.49396       -5.31061
C         -1.94051       -1.36047       -6.34363
C         -2.33087       -2.86053       -6.41819
C         -3.74223       -3.29125       -6.81682
C         -4.21700       -2.81866       -8.17785
C         -1.82189       -0.72512       -7.74521
N         -0.75591        0.33912       -7.72057
O          0.39073       -0.01081       -8.02570
O         -1.09590        1.47428       -7.36992
C         -4.12135       -0.13267       -5.76255
O         -4.37855        0.71249       -6.60770
O         -5.11779       -0.86504       -5.24910
H          0.11305       -0.69785        0.34382
H          0.76073        0.93409        0.53566
H          1.86831       -0.43093        0.31710
H         -0.12636        0.60307       -1.77227
H          1.58708        0.97741       -1.75439
H          1.13452       -0.79247       -3.37190
H          2.20441       -1.35772       -2.10316
H          0.56495       -3.05593       -2.73478
H          0.40707       -2.63486       -1.03346
H         -1.80001       -2.89871       -2.11904
H         -1.58421       -1.22338       -1.55520
H         -2.21727        0.47684       -5.23424
H         -0.90828       -1.39891       -5.96047
H         -1.62775       -3.35403       -7.10393
H         -2.12659       -3.31490       -5.43992
H         -3.75419       -4.38937       -6.82728
H         -4.46294       -3.00955       -6.04713
H         -3.48213       -3.04666       -8.95574
H         -5.15173       -3.32454       -8.44196
H         -4.42049       -1.74617       -8.18586
H         -1.48672       -1.45322       -8.49272
H         -2.73139       -0.25272       -8.11743
H         -5.94082       -0.47130       -5.60852

--Link1--
%chk=JID_10692.chk
%mem=8GB
%nprocshared=4
# B3LYP/6-311++G(d,p) empiricaldispersion=gd3bj scf=xqc pop=npa geom=check

CID_150123968_JID_10692_Energie_neutraal

0 1

--Link1--
%chk=JID_10692.chk
%mem=8GB
%nprocshared=4
# B3LYP/6-311++G(d,p) empiricaldispersion=gd3bj scf=xqc pop=npa geom=check

CID_150123968_JID_10692_Energie_kation

1 2

--Link1--
%chk=JID_10692.chk
%mem=8GB
%nprocshared=4
# B3LYP/6-311++G(d,p) empiricaldispersion=gd3bj scf=xqc pop=npa geom=check

CID_150123968_JID_10692_Energie_anion

-1 2
