%chk=JID_2837.chk
%mem=8GB
%nprocshared=4
# opt freq B3LYP/6-31G(d) empiricaldispersion=gd3bj scf=xqc

CID_85568051_JID_2837_neutraal

0 1
C          0.92449       -0.00990        0.06481
C          0.74485       -0.68597       -1.27070
O          0.56947       -1.90284       -1.33488
C          0.88142        0.17731       -2.51786
C          0.11464        1.51292       -2.50157
C         -0.65274        1.51252       -3.83951
C          0.35147        0.77398       -4.73970
C          0.39033       -0.46600       -3.83271
C         -1.10693       -0.85449       -3.74993
C         -1.81793        0.50100       -3.89246
O         -2.97422        0.71515       -3.11104
C         -2.88406        0.68063       -1.70355
H          1.09598       -0.76625        0.83622
H          0.02700        0.55672        0.32096
H          1.79498        0.65013        0.03187
H          1.95597        0.39016       -2.60999
H         -0.51881        1.65568       -1.63025
H          0.83823        2.33837       -2.49978
H         -0.93495        2.51420       -4.17073
H         -0.02982        0.56192       -5.74443
H          1.31732        1.28450       -4.82184
H          1.02960       -1.27915       -4.18410
H         -1.37617       -1.40780       -2.84942
H         -1.36953       -1.49187       -4.60337
H         -2.20716        0.53867       -4.92017
H         -2.20813       -0.09360       -1.33696
H         -2.59249        1.66313       -1.32546
H         -3.88217        0.47012       -1.30775

--Link1--
%chk=JID_2837.chk
%mem=8GB
%nprocshared=4
# B3LYP/6-311++G(d,p) empiricaldispersion=gd3bj scf=xqc pop=npa geom=check

CID_85568051_JID_2837_Energie_neutraal

0 1

--Link1--
%chk=JID_2837.chk
%mem=8GB
%nprocshared=4
# B3LYP/6-311++G(d,p) empiricaldispersion=gd3bj scf=xqc pop=npa geom=check

CID_85568051_JID_2837_Energie_kation

1 2

--Link1--
%chk=JID_2837.chk
%mem=8GB
%nprocshared=4
# B3LYP/6-311++G(d,p) empiricaldispersion=gd3bj scf=xqc pop=npa geom=check

CID_85568051_JID_2837_Energie_anion

-1 2
