%chk=JID_7967.chk
%mem=8GB
%nprocshared=4
# opt freq B3LYP/6-31G(d) empiricaldispersion=gd3bj scf=xqc

CID_81578248_JID_7967_neutraal

0 1
C          1.02314        0.01569       -0.09601
C          0.62208       -0.94290       -1.20581
C          0.55296       -2.40443       -0.75902
C         -0.49601       -2.75099        0.30740
N         -1.90795       -2.62932       -0.11404
C         -2.30031       -3.30090       -1.37974
C         -2.09997       -4.81602       -1.28243
O         -1.59798       -5.50523       -2.16400
N         -2.57622       -5.37945       -0.12769
C         -2.47812       -1.35550        0.02841
N         -3.02646       -0.75113       -1.04474
C         -3.57028        0.48945       -0.90910
C         -3.67091        1.15596        0.31739
C         -3.07578        0.53263        1.40931
C         -2.50155       -0.73155        1.27227
N         -4.12075        2.47829        0.44289
C         -4.07213        1.11480       -2.17827
H          0.28215        0.04566        0.70581
H          1.12210        1.03045       -0.49473
H          1.98627       -0.27083        0.33830
H         -0.32627       -0.62602       -1.64844
H          1.36909       -0.86741       -2.00585
H          0.41027       -3.03373       -1.64465
H          1.53704       -2.68445       -0.36009
H         -0.33064       -3.79705        0.59492
H         -0.29232       -2.18788        1.22480
H         -3.37118       -3.16634       -1.58437
H         -1.73715       -2.91413       -2.23572
H         -2.77523       -4.76689        0.65519
H         -2.39740       -6.35991        0.03367
H         -3.05438        1.01945        2.37977
H         -2.08414       -1.21979        2.14546
H         -4.41971        2.72087        1.38261
H         -4.80658        2.75200       -0.25370
H         -5.14933        1.29647       -2.11323
H         -3.55332        2.05927       -2.36978
H         -3.89369        0.45542       -3.03429

--Link1--
%chk=JID_7967.chk
%mem=8GB
%nprocshared=4
# B3LYP/6-311++G(d,p) empiricaldispersion=gd3bj scf=xqc pop=npa geom=check

CID_81578248_JID_7967_Energie_neutraal

0 1

--Link1--
%chk=JID_7967.chk
%mem=8GB
%nprocshared=4
# B3LYP/6-311++G(d,p) empiricaldispersion=gd3bj scf=xqc pop=npa geom=check

CID_81578248_JID_7967_Energie_kation

1 2

--Link1--
%chk=JID_7967.chk
%mem=8GB
%nprocshared=4
# B3LYP/6-311++G(d,p) empiricaldispersion=gd3bj scf=xqc pop=npa geom=check

CID_81578248_JID_7967_Energie_anion

-1 2
