%chk=JID_594.chk
%mem=8GB
%nprocshared=4
# opt freq B3LYP/6-31G(d) empiricaldispersion=gd3bj scf=xqc

CID_115629283_JID_594_neutraal

0 1
C          1.06700        0.07014        0.02434
C          0.78785        0.50203       -1.37846
C          0.06307       -0.21363       -2.25234
C         -0.22857        0.22703       -3.66262
C          0.41092       -0.68933       -4.71262
N         -0.13199       -2.03776       -4.71087
C         -1.36597       -2.48293       -5.00398
O         -1.73519       -3.55965       -4.53598
N         -2.21297       -1.78911       -5.78334
C         -1.92935       -0.78699       -6.77880
H          0.62016       -0.90199        0.25540
H          0.66596        0.80636        0.72755
H          2.14714       -0.00478        0.18274
H          1.20962        1.45932       -1.67671
H         -0.36784       -1.16583       -1.94571
H         -1.31600        0.26165       -3.79445
H          0.14102        1.24734       -3.82184
H          0.30907       -0.25466       -5.70760
H          1.48653       -0.78708       -4.52300
H          0.32767       -2.68542       -4.08286
H         -3.08180       -2.29649       -5.89631
H         -1.02311       -1.04966       -7.32974
H         -2.77451       -0.74426       -7.47096
H         -1.82433        0.18567       -6.29390

--Link1--
%chk=JID_594.chk
%mem=8GB
%nprocshared=4
# B3LYP/6-311++G(d,p) empiricaldispersion=gd3bj scf=xqc pop=npa geom=check

CID_115629283_JID_594_Energie_neutraal

0 1

--Link1--
%chk=JID_594.chk
%mem=8GB
%nprocshared=4
# B3LYP/6-311++G(d,p) empiricaldispersion=gd3bj scf=xqc pop=npa geom=check

CID_115629283_JID_594_Energie_kation

1 2

--Link1--
%chk=JID_594.chk
%mem=8GB
%nprocshared=4
# B3LYP/6-311++G(d,p) empiricaldispersion=gd3bj scf=xqc pop=npa geom=check

CID_115629283_JID_594_Energie_anion

-1 2
