%chk=JID_7844.chk
%mem=8GB
%nprocshared=4
# opt freq B3LYP/6-31G(d) empiricaldispersion=gd3bj scf=xqc

CID_138800853_JID_7844_neutraal

0 1
C          1.06379       -0.03502       -0.06859
C          0.55756        1.41853       -0.11099
C          1.52863        2.37877       -0.80290
C          2.30320        2.01230       -1.91368
C          3.14082        2.93852       -2.54189
C          3.22028        4.24589       -2.06935
C          2.46464        4.62920       -0.96585
C          1.62725        3.70427       -0.33923
N         -0.80376        1.64477       -0.60455
C         -1.68538        2.43670        0.24315
C         -2.16224        3.65206       -0.50281
C         -3.44516        3.99935       -0.66877
C         -1.48361        0.78727       -1.58599
C         -0.76285        0.74571       -2.93308
C         -1.82209       -0.59450       -1.01158
O         -2.17865       -0.84388        0.13141
O         -1.76328       -1.59730       -1.91268
H          1.07859       -0.51993       -1.04703
H          0.44716       -0.64088        0.60298
H          2.08786       -0.07108        0.32247
H          0.59178        1.70182        0.95145
H          2.25813        1.00525       -2.31729
H          3.72564        2.63849       -3.40744
H          3.86658        4.96580       -2.56368
H          2.51895        5.64942       -0.59580
H          1.03560        4.02812        0.51430
H         -2.52564        1.83427        0.60873
H         -1.17296        2.80062        1.14192
H         -1.38875        4.28383       -0.93571
H         -3.70577        4.89337       -1.22722
H         -4.25562        3.40484       -0.26034
H         -2.46662        1.22291       -1.81424
H          0.14307        0.13689       -2.91145
H         -1.41630        0.31162       -3.69912
H         -0.50427        1.75479       -3.27227
H         -2.02763       -2.38725       -1.39638

--Link1--
%chk=JID_7844.chk
%mem=8GB
%nprocshared=4
# B3LYP/6-311++G(d,p) empiricaldispersion=gd3bj scf=xqc pop=npa geom=check

CID_138800853_JID_7844_Energie_neutraal

0 1

--Link1--
%chk=JID_7844.chk
%mem=8GB
%nprocshared=4
# B3LYP/6-311++G(d,p) empiricaldispersion=gd3bj scf=xqc pop=npa geom=check

CID_138800853_JID_7844_Energie_kation

1 2

--Link1--
%chk=JID_7844.chk
%mem=8GB
%nprocshared=4
# B3LYP/6-311++G(d,p) empiricaldispersion=gd3bj scf=xqc pop=npa geom=check

CID_138800853_JID_7844_Energie_anion

-1 2
