%chk=JID_8045.chk
%mem=8GB
%nprocshared=4
# opt freq B3LYP/6-31G(d) empiricaldispersion=gd3bj scf=xqc

CID_151848931_JID_8045_neutraal

0 1
C          2.49200        0.00400       -0.01400
C          0.99198        0.04101       -0.02125
C          0.25914       -1.03701       -0.53004
C         -1.14563       -1.04335       -0.50578
C         -1.83731        0.07197        0.01907
C         -1.09597        1.13551        0.55537
C          0.30240        1.11938        0.53638
S         -3.63491        0.08399        0.04608
C         -4.06468        1.81176       -0.12262
C         -4.64906        2.42782        0.99613
C         -5.02292        3.77080        0.96064
C         -4.82014        4.51320       -0.19677
C         -4.25396        3.91025       -1.32056
C         -3.88324        2.55346       -1.30630
C         -3.28617        1.95803       -2.55250
N         -1.80431       -2.16614       -1.04668
N         -2.13637       -2.98230       -0.16355
N         -2.43406       -3.74021        0.63558
H          2.84973       -0.47634        0.90186
H          2.87277       -0.55078       -0.87794
H          2.90780        1.01558       -0.06884
H          0.78151       -1.89339       -0.95281
H         -1.59244        1.99493        0.99913
H          0.84709        1.96106        0.96007
H         -4.81777        1.86099        1.90965
H         -5.47356        4.23302        1.83491
H         -5.10928        5.56061       -0.22940
H         -4.11069        4.50817       -2.21866
H         -2.21115        1.80179       -2.42387
H         -3.77088        1.01015       -2.80580
H         -3.42399        2.62119       -3.41386

--Link1--
%chk=JID_8045.chk
%mem=8GB
%nprocshared=4
# B3LYP/6-311++G(d,p) empiricaldispersion=gd3bj scf=xqc pop=npa geom=check

CID_151848931_JID_8045_Energie_neutraal

0 1

--Link1--
%chk=JID_8045.chk
%mem=8GB
%nprocshared=4
# B3LYP/6-311++G(d,p) empiricaldispersion=gd3bj scf=xqc pop=npa geom=check

CID_151848931_JID_8045_Energie_kation

1 2

--Link1--
%chk=JID_8045.chk
%mem=8GB
%nprocshared=4
# B3LYP/6-311++G(d,p) empiricaldispersion=gd3bj scf=xqc pop=npa geom=check

CID_151848931_JID_8045_Energie_anion

-1 2
