%chk=JID_2207.chk
%mem=8GB
%nprocshared=4
# opt freq B3LYP/6-31G(d) empiricaldispersion=gd3bj scf=xqc

CID_130661065_JID_2207_neutraal

0 1
C          0.93391        0.04983       -0.05611
C          0.35249       -1.06635       -0.95229
C          1.44670       -1.62359       -1.90075
C          2.53705       -2.42258       -1.19055
C          1.93583       -3.54602       -0.35773
C          0.89406       -3.02913        0.63218
C         -0.18454       -2.20473       -0.05468
C         -1.50146       -2.47468        0.08024
C         -2.09991       -3.51734        0.94343
O         -2.89728       -4.33678        0.51310
N         -1.78689       -3.41364        2.26079
C         -0.72106       -0.40287       -1.84885
H          0.16141        0.46853        0.60005
H          1.33310        0.87180       -0.66189
H          1.74811       -0.30144        0.58502
H          0.97899       -2.27542       -2.65189
H          1.91767       -0.80316       -2.45752
H          3.13646       -1.76381       -0.55211
H          3.22255       -2.84528       -1.93419
H          2.73292       -4.06556        0.18652
H          1.47288       -4.28555       -1.02366
H          1.38137       -2.41796        1.40074
H          0.48385       -3.90102        1.15024
H         -2.26188       -1.93993       -0.47779
H         -1.20777       -2.67093        2.62407
H         -2.22352       -4.06043        2.90268
H         -1.49756        0.09218       -1.25433
H         -0.27456        0.36392       -2.49344
H         -1.20606       -1.13521       -2.50468

--Link1--
%chk=JID_2207.chk
%mem=8GB
%nprocshared=4
# B3LYP/6-311++G(d,p) empiricaldispersion=gd3bj scf=xqc pop=npa geom=check

CID_130661065_JID_2207_Energie_neutraal

0 1

--Link1--
%chk=JID_2207.chk
%mem=8GB
%nprocshared=4
# B3LYP/6-311++G(d,p) empiricaldispersion=gd3bj scf=xqc pop=npa geom=check

CID_130661065_JID_2207_Energie_kation

1 2

--Link1--
%chk=JID_2207.chk
%mem=8GB
%nprocshared=4
# B3LYP/6-311++G(d,p) empiricaldispersion=gd3bj scf=xqc pop=npa geom=check

CID_130661065_JID_2207_Energie_anion

-1 2
