%chk=JID_2523.chk
%mem=8GB
%nprocshared=4
# opt freq B3LYP/6-31G(d) empiricaldispersion=gd3bj scf=xqc

CID_129990527_JID_2523_neutraal

0 1
C          0.95763       -0.03203        0.08473
C          0.22709        1.31272        0.12205
C          0.86771        2.25809       -0.90240
C         -1.28800        1.16490       -0.13476
C         -2.00852        0.18360        0.81477
C         -3.46142        0.71628        0.87768
C         -3.24332        2.20510        0.66538
O         -4.03981        3.10030        0.88918
N         -2.00586        2.39368        0.08854
C         -4.10744        0.43789        2.23299
C         -4.36002        0.19296       -0.25045
O         -1.93560       -1.16593        0.36955
H          0.77949       -0.55402       -0.86152
H          0.63597       -0.68317        0.90312
H          2.03857        0.10858        0.19419
H          0.37940        1.75204        1.11696
H          0.73383        1.88472       -1.92351
H          0.43417        3.26133       -0.84761
H          1.94297        2.35865       -0.71867
H         -1.45295        0.87161       -1.17955
H         -1.55142        0.23032        1.81166
H         -1.73968        3.31310       -0.24386
H         -5.11879        0.85689        2.28474
H         -4.17573       -0.63856        2.42338
H         -3.53198        0.89084        3.04845
H         -3.92347        0.37893       -1.23809
H         -4.53798       -0.88340       -0.15367
H         -5.33580        0.69284       -0.23597
H         -2.21958       -1.21166       -0.55934

--Link1--
%chk=JID_2523.chk
%mem=8GB
%nprocshared=4
# B3LYP/6-311++G(d,p) empiricaldispersion=gd3bj scf=xqc pop=npa geom=check

CID_129990527_JID_2523_Energie_neutraal

0 1

--Link1--
%chk=JID_2523.chk
%mem=8GB
%nprocshared=4
# B3LYP/6-311++G(d,p) empiricaldispersion=gd3bj scf=xqc pop=npa geom=check

CID_129990527_JID_2523_Energie_kation

1 2

--Link1--
%chk=JID_2523.chk
%mem=8GB
%nprocshared=4
# B3LYP/6-311++G(d,p) empiricaldispersion=gd3bj scf=xqc pop=npa geom=check

CID_129990527_JID_2523_Energie_anion

-1 2
