%chk=JID_5721.chk
%mem=8GB
%nprocshared=4
# opt freq B3LYP/6-31G(d) empiricaldispersion=gd3bj scf=xqc

CID_153048538_JID_5721_neutraal

0 1
C          0.94837        0.08185       -0.02519
C          0.35614       -0.87401       -1.06605
C         -0.35484       -2.06858       -0.42324
C          0.26656       -3.14028        0.12174
C         -0.47288       -4.26335        0.81717
C         -1.96496       -4.02391        0.91036
O         -2.64618       -4.53108        1.80279
C         -2.59634       -3.27181       -0.22449
C         -1.86774       -1.95389       -0.42443
C          1.71339       -3.29699        0.17209
C          2.60828       -2.88062       -0.73341
C          2.33535       -2.17677       -1.96346
C          1.36637       -1.25700       -2.14366
O          1.16136       -0.54476       -3.31451
C          2.07278       -0.72496       -4.39097
H          0.17502        0.42067        0.67355
H          1.36791        0.97069       -0.51011
H          1.74664       -0.37944        0.56486
H         -0.41899       -0.28947       -1.58361
H         -0.32157       -5.20327        0.27397
H         -0.09850       -4.38036        1.84136
H         -2.54162       -3.89737       -1.12259
H         -3.65282       -3.08865       -0.00225
H         -2.21342       -1.53179       -1.37568
H         -2.15530       -1.24707        0.36444
H          2.09873       -3.83032        1.04139
H          3.65940       -3.10630       -0.55976
H          3.03853       -2.41019       -2.75663
H          3.08954       -0.44746       -4.09426
H          2.03799       -1.75264       -4.76606
H          1.76780       -0.05967       -5.20420

--Link1--
%chk=JID_5721.chk
%mem=8GB
%nprocshared=4
# B3LYP/6-311++G(d,p) empiricaldispersion=gd3bj scf=xqc pop=npa geom=check

CID_153048538_JID_5721_Energie_neutraal

0 1

--Link1--
%chk=JID_5721.chk
%mem=8GB
%nprocshared=4
# B3LYP/6-311++G(d,p) empiricaldispersion=gd3bj scf=xqc pop=npa geom=check

CID_153048538_JID_5721_Energie_kation

1 2

--Link1--
%chk=JID_5721.chk
%mem=8GB
%nprocshared=4
# B3LYP/6-311++G(d,p) empiricaldispersion=gd3bj scf=xqc pop=npa geom=check

CID_153048538_JID_5721_Energie_anion

-1 2
