%chk=JID_5558.chk
%mem=8GB
%nprocshared=4
# opt freq B3LYP/6-31G(d) empiricaldispersion=gd3bj scf=xqc

CID_91396420_JID_5558_neutraal

0 1
C          0.96278       -0.05261       -0.07646
C          0.67671        1.30833       -0.68896
C          0.95381        1.38964       -2.19449
C          0.24648        0.34719       -3.07863
C         -1.30145        0.38445       -3.04984
C         -1.99958        1.47542       -3.91254
C         -1.16806        2.39322       -4.82261
C         -0.84803        1.83269       -6.20793
N         -2.01773        1.85379       -7.07978
C         -1.90017       -1.06338       -3.17221
C         -1.52023       -1.86223       -4.43160
C         -2.41831       -1.64574       -5.64736
C         -3.86312       -1.45360       -5.31713
C         -4.30960       -1.23437       -4.07399
C         -3.41622       -1.13687       -2.87477
H          0.26437       -0.81111       -0.44165
H          0.85696       -0.00412        1.01212
H          1.98227       -0.37980       -0.30335
H         -0.35825        1.59453       -0.47409
H          1.30642        2.05365       -0.18733
H          0.70597        2.40289       -2.52204
H          2.03482        1.27867       -2.35032
H          0.60821        0.45043       -4.10675
H          0.59838       -0.64087       -2.75701
H         -1.56870        0.65749       -2.01959
H         -2.82146        1.05062       -4.49028
H         -2.49737        2.14528       -3.19544
H         -1.72695        3.33041       -4.95546
H         -0.23788        2.69412       -4.33942
H         -0.07419        2.45469       -6.67087
H         -0.44596        0.81845       -6.13713
H         -1.79213        1.40011       -7.96347
H         -2.77753        1.31612       -6.66505
H         -1.42824       -1.60776       -2.33833
H         -0.47542       -1.69453       -4.71405
H         -1.58176       -2.92847       -4.16922
H         -2.07275       -0.78361       -6.21823
H         -2.31887       -2.51100       -6.31394
H         -4.57254       -1.49789       -6.13997
H         -5.37733       -1.11840       -3.90308
H         -3.60778       -2.02768       -2.26189
H         -3.72498       -0.27927       -2.26571

--Link1--
%chk=JID_5558.chk
%mem=8GB
%nprocshared=4
# B3LYP/6-311++G(d,p) empiricaldispersion=gd3bj scf=xqc pop=npa geom=check

CID_91396420_JID_5558_Energie_neutraal

0 1

--Link1--
%chk=JID_5558.chk
%mem=8GB
%nprocshared=4
# B3LYP/6-311++G(d,p) empiricaldispersion=gd3bj scf=xqc pop=npa geom=check

CID_91396420_JID_5558_Energie_kation

1 2

--Link1--
%chk=JID_5558.chk
%mem=8GB
%nprocshared=4
# B3LYP/6-311++G(d,p) empiricaldispersion=gd3bj scf=xqc pop=npa geom=check

CID_91396420_JID_5558_Energie_anion

-1 2
