%chk=JID_6309.chk
%mem=8GB
%nprocshared=4
# opt freq B3LYP/6-31G(d) empiricaldispersion=gd3bj scf=xqc

CID_81633560_JID_6309_neutraal

0 1
C          1.06016       -0.05890        0.05397
C          0.49590       -0.15729       -1.37897
C          1.25037       -1.29237       -2.10113
C         -0.99409       -0.55016       -1.30696
C          0.62145        1.20917       -2.06890
C          0.09488        2.41573       -1.63599
C          0.37510        3.49867       -2.51853
C          1.13210        3.11017       -3.60696
S          1.44579        1.42769       -3.55938
C          1.62286        3.88061       -4.74352
O          1.70569        3.43059       -5.88398
C          2.01102        5.26493       -4.48002
C          2.41275        5.83406       -3.28621
O          2.71570        7.14788       -3.44808
C          2.53993        7.43541       -4.76160
C          2.12364        6.31667       -5.44151
H          0.99351       -1.02181        0.57347
H          0.51393        0.67472        0.65784
H          2.11400        0.24364        0.04348
H          1.13810       -2.24205       -1.56419
H          0.86942       -1.45243       -3.11645
H          2.32486       -1.08584       -2.16876
H         -1.57971        0.17970       -0.73612
H         -1.43521       -0.61298       -2.30881
H         -1.12445       -1.52452       -0.82218
H         -0.48474        2.51716       -0.72549
H          0.01763        4.50923       -2.35771
H          2.54302        5.45946       -2.27962
H          2.75615        8.45424       -5.05265
H          1.91985        6.25029       -6.50221

--Link1--
%chk=JID_6309.chk
%mem=8GB
%nprocshared=4
# B3LYP/6-311++G(d,p) empiricaldispersion=gd3bj scf=xqc pop=npa geom=check

CID_81633560_JID_6309_Energie_neutraal

0 1

--Link1--
%chk=JID_6309.chk
%mem=8GB
%nprocshared=4
# B3LYP/6-311++G(d,p) empiricaldispersion=gd3bj scf=xqc pop=npa geom=check

CID_81633560_JID_6309_Energie_kation

1 2

--Link1--
%chk=JID_6309.chk
%mem=8GB
%nprocshared=4
# B3LYP/6-311++G(d,p) empiricaldispersion=gd3bj scf=xqc pop=npa geom=check

CID_81633560_JID_6309_Energie_anion

-1 2
