%chk=JID_3415.chk
%mem=8GB
%nprocshared=4
# opt freq B3LYP/6-31G(d) empiricaldispersion=gd3bj scf=xqc

CID_131175450_JID_3415_neutraal

0 1
C          1.07827        0.05863       -0.02088
C          0.14051       -1.03257       -0.51185
C          0.60768       -2.44994       -0.15613
C          0.71100       -2.75264        1.35968
C         -0.65746       -2.65997        2.04866
N          1.32277       -4.04806        1.68330
C          0.65403       -5.26634        1.15302
C          1.78116       -6.09783        0.71483
C          2.93984       -5.48076        0.85456
C          2.78428       -4.13294        1.41151
C          4.05997       -6.31450        0.41995
N          3.40641       -7.54891       -0.11085
C          1.94129       -7.44294        0.16339
H          1.07410        0.13091        1.07044
H          0.76247        1.02973       -0.41574
H          2.10476       -0.12430       -0.35378
H         -0.86955       -0.85095       -0.12991
H          0.07210       -0.96167       -1.60450
H         -0.09175       -3.14776       -0.63110
H          1.57688       -2.61385       -0.64114
H          1.34204       -1.98750        1.82799
H         -1.39458       -3.32266        1.58273
H         -0.58135       -2.92919        3.10861
H         -1.04935       -1.63871        2.00981
H          0.08830       -5.75086        1.95468
H         -0.01607       -5.07141        0.31221
H          3.13762       -3.38167        0.69920
H          3.33586       -4.02022        2.34985
H          4.64706       -5.83115       -0.36688
H          4.71737       -6.57540        1.25436
H          3.52977       -7.55060       -1.12195
H          1.64448       -8.21244        0.88187
H          1.37445       -7.57398       -0.76340

--Link1--
%chk=JID_3415.chk
%mem=8GB
%nprocshared=4
# B3LYP/6-311++G(d,p) empiricaldispersion=gd3bj scf=xqc pop=npa geom=check

CID_131175450_JID_3415_Energie_neutraal

0 1

--Link1--
%chk=JID_3415.chk
%mem=8GB
%nprocshared=4
# B3LYP/6-311++G(d,p) empiricaldispersion=gd3bj scf=xqc pop=npa geom=check

CID_131175450_JID_3415_Energie_kation

1 2

--Link1--
%chk=JID_3415.chk
%mem=8GB
%nprocshared=4
# B3LYP/6-311++G(d,p) empiricaldispersion=gd3bj scf=xqc pop=npa geom=check

CID_131175450_JID_3415_Energie_anion

-1 2
