%chk=JID_6858.chk
%mem=8GB
%nprocshared=4
# opt freq B3LYP/6-31G(d) empiricaldispersion=gd3bj scf=xqc

CID_150209123_JID_6858_neutraal

0 1
C          1.03524       -0.04366        0.08277
C          1.23818       -1.22833        1.01618
C          1.89840       -0.79710        2.32968
C          2.07915       -1.86877        3.38290
C          2.39101       -1.47197        4.68910
C          2.59169       -2.41298        5.71423
C          2.54286       -3.79644        5.44495
C          2.19574       -4.19765        4.13580
C          1.97865       -3.23903        3.12373
C          2.01163       -5.63554        3.79185
O          1.65252       -6.52642        4.53708
O          2.31414       -5.89029        2.50509
C          2.85678       -4.81260        6.51224
C          2.85904       -1.84326        7.05594
O          3.52707       -0.85391        7.28977
O          2.16493       -2.47191        8.01923
H          0.38555        0.70962        0.53970
H          0.56846       -0.37295       -0.85085
H          1.99108        0.42969       -0.16351
H          0.26660       -1.69547        1.21690
H          1.85992       -1.97251        0.50490
H          1.29330        0.00810        2.76725
H          2.88757       -0.37572        2.10889
H          2.47037       -0.40926        4.92188
H          1.72330       -3.58504        2.12437
H          2.17081       -6.85616        2.41790
H          3.53690       -4.41050        7.26961
H          1.93699       -5.15036        6.99881
H          3.38823       -5.67454        6.09628
H          2.36692       -1.96414        8.83257

--Link1--
%chk=JID_6858.chk
%mem=8GB
%nprocshared=4
# B3LYP/6-311++G(d,p) empiricaldispersion=gd3bj scf=xqc pop=npa geom=check

CID_150209123_JID_6858_Energie_neutraal

0 1

--Link1--
%chk=JID_6858.chk
%mem=8GB
%nprocshared=4
# B3LYP/6-311++G(d,p) empiricaldispersion=gd3bj scf=xqc pop=npa geom=check

CID_150209123_JID_6858_Energie_kation

1 2

--Link1--
%chk=JID_6858.chk
%mem=8GB
%nprocshared=4
# B3LYP/6-311++G(d,p) empiricaldispersion=gd3bj scf=xqc pop=npa geom=check

CID_150209123_JID_6858_Energie_anion

-1 2
