%chk=JID_8588.chk
%mem=8GB
%nprocshared=4
# opt freq B3LYP/6-31G(d) empiricaldispersion=gd3bj scf=xqc

CID_42669798_JID_8588_neutraal

0 1
C          0.91056       -0.01664        0.04153
C          0.03093        0.99524       -0.68398
C          0.76007        2.26030       -1.03700
C          0.51285        3.57062       -0.61931
C          1.67416        4.28739       -1.00193
N          2.55500        3.51273       -1.63265
N          1.92996        2.31970       -1.79853
C          2.53495        1.35006       -2.65379
C          1.79267        0.34679       -3.28409
C          2.42952       -0.60427       -4.08967
C          3.81276       -0.55959       -4.28833
C          4.54912        0.47114       -3.69629
C          3.91560        1.42512       -2.89516
C          4.50491       -1.58221       -5.13924
C          1.99486        5.71783       -0.75618
C         -0.61578        4.11876        0.10793
O         -0.65052        5.22513        0.62902
O         -1.71457        3.33597        0.15654
H          1.72637       -0.39259       -0.57996
H          0.31009       -0.87854        0.35102
H          1.35371        0.42435        0.94129
H         -0.44422        0.54989       -1.56038
H         -0.79507        1.21480       -0.00229
H          0.71349        0.29845       -3.21230
H          1.83135       -1.37696       -4.56820
H          5.62390        0.53784       -3.85058
H          4.51911        2.20905       -2.44020
H          4.94319       -1.10508       -6.02131
H          5.29573       -2.07665       -4.56567
H          3.80993       -2.35587       -5.48199
H          1.20791        6.36255       -1.16035
H          2.08780        5.90960        0.31748
H          2.93832        6.00548       -1.23212
H         -2.35121        3.88330        0.65986

--Link1--
%chk=JID_8588.chk
%mem=8GB
%nprocshared=4
# B3LYP/6-311++G(d,p) empiricaldispersion=gd3bj scf=xqc pop=npa geom=check

CID_42669798_JID_8588_Energie_neutraal

0 1

--Link1--
%chk=JID_8588.chk
%mem=8GB
%nprocshared=4
# B3LYP/6-311++G(d,p) empiricaldispersion=gd3bj scf=xqc pop=npa geom=check

CID_42669798_JID_8588_Energie_kation

1 2

--Link1--
%chk=JID_8588.chk
%mem=8GB
%nprocshared=4
# B3LYP/6-311++G(d,p) empiricaldispersion=gd3bj scf=xqc pop=npa geom=check

CID_42669798_JID_8588_Energie_anion

-1 2
