%chk=JID_1909.chk
%mem=8GB
%nprocshared=4
# opt freq B3LYP/6-31G(d) empiricaldispersion=gd3bj scf=xqc

CID_39248212_JID_1909_neutraal

0 1
C          0.90324        0.01057       -0.02293
C          0.26370        0.16391       -1.39680
C          0.47759       -1.05196       -2.30638
C         -0.12860       -2.35509       -1.77253
N         -1.59062       -2.26306       -1.70203
C         -2.24073       -2.87964       -2.85414
C         -2.15218       -2.70644       -0.41442
C         -1.82545       -4.14155        0.01741
C         -0.81133       -4.19354        1.14019
O         -0.67964       -3.33701        2.00570
N         -0.05918       -5.33143        1.17715
H          0.41339       -0.76741        0.56874
H          0.81794        0.94868        0.53513
H          1.96625       -0.23520       -0.10985
H         -0.80605        0.37081       -1.27947
H          0.69942        1.04255       -1.88750
H          0.06352       -0.82945       -3.29779
H          1.55496       -1.20156       -2.45029
H          0.18343       -3.19046       -2.41288
H          0.31523       -2.56276       -0.79362
H         -2.06832       -3.95991       -2.90546
H         -3.32211       -2.70614       -2.82788
H         -1.87722       -2.43370       -3.78666
H         -1.85110       -1.97936        0.34875
H         -3.24409       -2.60413       -0.47244
H         -2.73701       -4.61427        0.40390
H         -1.48446       -4.75430       -0.82339
H         -0.06180       -6.02045        0.43909
H          0.64851       -5.39396        1.89798

--Link1--
%chk=JID_1909.chk
%mem=8GB
%nprocshared=4
# B3LYP/6-311++G(d,p) empiricaldispersion=gd3bj scf=xqc pop=npa geom=check

CID_39248212_JID_1909_Energie_neutraal

0 1

--Link1--
%chk=JID_1909.chk
%mem=8GB
%nprocshared=4
# B3LYP/6-311++G(d,p) empiricaldispersion=gd3bj scf=xqc pop=npa geom=check

CID_39248212_JID_1909_Energie_kation

1 2

--Link1--
%chk=JID_1909.chk
%mem=8GB
%nprocshared=4
# B3LYP/6-311++G(d,p) empiricaldispersion=gd3bj scf=xqc pop=npa geom=check

CID_39248212_JID_1909_Energie_anion

-1 2
