%chk=JID_4599.chk
%mem=8GB
%nprocshared=4
# opt freq B3LYP/6-31G(d) empiricaldispersion=gd3bj scf=xqc

CID_130055489_JID_4599_neutraal

0 1
C          1.24600        0.75200        0.43800
C          1.28130       -0.75482        0.18939
C          0.25059       -1.01546       -0.90607
C         -0.80544        0.08195       -0.68603
C          0.07431        1.30079       -0.38128
C         -1.80299        0.25978       -1.87473
C         -2.67567        1.50297       -1.70202
N         -2.40659        2.58994       -2.48435
C         -3.20553        3.66490       -2.29436
C         -4.23790        3.67026       -1.37342
N         -4.51926        2.60272       -0.59544
C         -3.71377        1.52729       -0.77362
N         -1.13339        0.27694       -3.19856
O         -1.54372       -0.25151        0.50691
H          1.10355        0.95405        1.50559
H          2.18471        1.22989        0.13837
H          1.00417       -1.28869        1.10611
H          2.27826       -1.09987       -0.10184
H         -0.15894       -2.02733       -0.82253
H          0.74218       -0.92113       -1.88067
H          0.46351        1.75175       -1.30129
H         -0.45444        2.07445        0.18541
H         -2.47862       -0.60593       -1.88369
H         -2.99242        4.53152       -2.90954
H         -4.87017        4.53960       -1.23494
H         -3.93268        0.67581       -0.13805
H         -1.86799        0.35888       -3.90468
H         -0.66524        1.18714       -3.26565
H         -1.72533       -1.20771        0.49096

--Link1--
%chk=JID_4599.chk
%mem=8GB
%nprocshared=4
# B3LYP/6-311++G(d,p) empiricaldispersion=gd3bj scf=xqc pop=npa geom=check

CID_130055489_JID_4599_Energie_neutraal

0 1

--Link1--
%chk=JID_4599.chk
%mem=8GB
%nprocshared=4
# B3LYP/6-311++G(d,p) empiricaldispersion=gd3bj scf=xqc pop=npa geom=check

CID_130055489_JID_4599_Energie_kation

1 2

--Link1--
%chk=JID_4599.chk
%mem=8GB
%nprocshared=4
# B3LYP/6-311++G(d,p) empiricaldispersion=gd3bj scf=xqc pop=npa geom=check

CID_130055489_JID_4599_Energie_anion

-1 2
