%chk=JID_4083.chk
%mem=8GB
%nprocshared=4
# opt freq B3LYP/6-31G(d) empiricaldispersion=gd3bj scf=xqc

CID_104583277_JID_4083_neutraal

0 1
C          1.01618       -0.06748        0.07201
C          0.63301        1.07760       -0.86880
C          1.29406        0.93173       -2.25713
C          1.18712       -0.41589       -2.98560
C         -0.20403       -0.83188       -3.36348
C         -0.73046       -0.67241       -4.58385
N         -0.83041        1.14889       -0.91085
C         -1.39425        2.46324       -0.59411
C         -1.17540        3.55631       -1.65791
C         -1.55907        3.21757       -3.09692
O         -2.48950        4.16976       -3.60295
C         -2.81824        2.19227       -0.15764
C         -3.94993        3.18301       -0.29985
C         -3.97176        1.90122       -1.08827
H          0.58981       -1.02486       -0.24626
H          0.65776        0.13092        1.08878
H          2.10458       -0.17969        0.12223
H          1.03995        1.99500       -0.42325
H          0.92965        1.72541       -2.91934
H          2.36612        1.13638       -2.12759
H          1.80303       -0.35430       -3.89290
H          1.64110       -1.21147       -2.38369
H         -0.79849       -1.31725       -2.59082
H         -1.73935       -1.00940       -4.80270
H         -0.17243       -0.20687       -5.39074
H         -1.19657        0.81125       -1.79642
H         -0.90576        2.83071        0.31968
H         -1.66600        4.48335       -1.33892
H         -0.10246        3.79316       -1.66263
H         -0.67445        3.28050       -3.73877
H         -1.97731        2.21822       -3.22786
H         -3.31624        4.06232       -3.10301
H         -2.80671        1.61978        0.77005
H         -4.64076        3.27587        0.53242
H         -3.80186        4.11146       -0.83394
H         -3.84269        1.95110       -2.15852
H         -4.67242        1.13014       -0.78240

--Link1--
%chk=JID_4083.chk
%mem=8GB
%nprocshared=4
# B3LYP/6-311++G(d,p) empiricaldispersion=gd3bj scf=xqc pop=npa geom=check

CID_104583277_JID_4083_Energie_neutraal

0 1

--Link1--
%chk=JID_4083.chk
%mem=8GB
%nprocshared=4
# B3LYP/6-311++G(d,p) empiricaldispersion=gd3bj scf=xqc pop=npa geom=check

CID_104583277_JID_4083_Energie_kation

1 2

--Link1--
%chk=JID_4083.chk
%mem=8GB
%nprocshared=4
# B3LYP/6-311++G(d,p) empiricaldispersion=gd3bj scf=xqc pop=npa geom=check

CID_104583277_JID_4083_Energie_anion

-1 2
