%chk=JID_10286.chk
%mem=8GB
%nprocshared=4
# opt freq B3LYP/6-31G(d) empiricaldispersion=gd3bj scf=xqc

CID_20491388_JID_10286_neutraal

0 1
C          1.34400       -0.22500        0.03600
C          0.86346        1.06356        0.21267
C         -0.49995        1.26935        0.17830
C         -1.37667        0.18371       -0.03225
C         -0.85060       -1.11279       -0.18392
C          0.51316       -1.31825       -0.14671
C         -2.86210        0.47402       -0.21412
C         -3.38818        1.24748        0.98397
N         -3.82461        1.88912        1.97787
C         -3.07757        1.29179       -1.54000
C         -3.95153        2.39605       -1.61401
C         -4.15906        3.07035       -2.82094
C         -3.50978        2.65437       -3.97921
C         -2.65218        1.56053       -3.93695
C         -2.44104        0.88307       -2.73433
C         -3.76064       -0.78505       -0.24239
N         -3.79750       -1.75786        0.65714
C         -4.76073       -2.63740        0.24165
C         -5.33047       -2.20892       -0.92937
N         -4.70049       -1.03325       -1.22558
H          2.42135       -0.38735        0.06145
H          1.54787        1.89280        0.36487
H         -0.87486        2.28601        0.28643
H         -1.48888       -1.97791       -0.34766
H          0.92761       -2.31511       -0.26375
H         -4.49283        2.76086       -0.74173
H         -4.82959        3.92666       -2.85407
H         -3.67004        3.18569       -4.91421
H         -2.14141        1.23526       -4.84045
H         -1.76477        0.02864       -2.74205
H         -4.99259       -3.52922        0.81001
H         -6.11101       -2.61977       -1.55370
H         -4.89237       -0.44440       -2.02668

--Link1--
%chk=JID_10286.chk
%mem=8GB
%nprocshared=4
# B3LYP/6-311++G(d,p) empiricaldispersion=gd3bj scf=xqc pop=npa geom=check

CID_20491388_JID_10286_Energie_neutraal

0 1

--Link1--
%chk=JID_10286.chk
%mem=8GB
%nprocshared=4
# B3LYP/6-311++G(d,p) empiricaldispersion=gd3bj scf=xqc pop=npa geom=check

CID_20491388_JID_10286_Energie_kation

1 2

--Link1--
%chk=JID_10286.chk
%mem=8GB
%nprocshared=4
# B3LYP/6-311++G(d,p) empiricaldispersion=gd3bj scf=xqc pop=npa geom=check

CID_20491388_JID_10286_Energie_anion

-1 2
