%chk=JID_10482.chk
%mem=8GB
%nprocshared=4
# opt freq B3LYP/6-31G(d) empiricaldispersion=gd3bj scf=xqc

CID_108147592_JID_10482_neutraal

0 1
C         -2.47500       -0.07800       -0.00600
C         -0.97711       -0.13327       -0.06935
C         -0.25925       -1.30099       -0.25100
C          1.12720       -1.23870       -0.26253
N          1.74648       -0.04749       -0.14145
C          1.00107        1.05576        0.02183
N         -0.34471        1.05309        0.06656
N          1.69102        2.27682        0.14974
N          1.06940        3.33217        0.86539
N          1.91090       -2.38239       -0.49041
C          3.37807       -2.25353       -0.43451
C          3.84575       -2.28490        1.02256
C          3.97961       -3.35247       -1.34823
C          3.84850       -4.77917       -0.84488
C          5.14662       -5.04721       -0.10980
O          6.09273       -4.05444       -0.51956
C          5.48535       -3.22137       -1.51171
N         -0.92626       -2.56526       -0.39625
O         -0.59396       -3.47251        0.38221
O         -1.79568       -2.66039       -1.27249
H         -2.81009        0.91201        0.32229
H         -2.90770       -0.26407       -0.99338
H         -2.86274       -0.80785        0.71150
H          2.65755        2.05200        0.38766
H          1.26923        4.21923        0.39712
H          0.05023        3.21889        0.78519
H          1.57407       -3.16830        0.07111
H          3.68575       -1.29604       -0.87530
H          3.51729       -3.19467        1.53525
H          4.93485       -2.21504        1.09528
H          3.43159       -1.44066        1.58454
H          3.49778       -3.25426       -2.33013
H          3.78585       -5.45770       -1.70531
H          2.96795       -4.97393       -0.22672
H          5.02390       -4.97343        0.97474
H          5.54522       -6.04090       -0.33653
H          5.80028       -3.59889       -2.49143
H          5.85607       -2.19725       -1.40955

--Link1--
%chk=JID_10482.chk
%mem=8GB
%nprocshared=4
# B3LYP/6-311++G(d,p) empiricaldispersion=gd3bj scf=xqc pop=npa geom=check

CID_108147592_JID_10482_Energie_neutraal

0 1

--Link1--
%chk=JID_10482.chk
%mem=8GB
%nprocshared=4
# B3LYP/6-311++G(d,p) empiricaldispersion=gd3bj scf=xqc pop=npa geom=check

CID_108147592_JID_10482_Energie_kation

1 2

--Link1--
%chk=JID_10482.chk
%mem=8GB
%nprocshared=4
# B3LYP/6-311++G(d,p) empiricaldispersion=gd3bj scf=xqc pop=npa geom=check

CID_108147592_JID_10482_Energie_anion

-1 2
