%chk=JID_10655.chk
%mem=8GB
%nprocshared=4
# opt freq B3LYP/6-31G(d) empiricaldispersion=gd3bj scf=xqc

CID_107001585_JID_10655_neutraal

0 1
C          1.04454        0.07808        0.04381
C         -0.27752       -0.66950       -0.06144
C         -0.12148       -2.19875       -0.02568
C          0.34224       -2.77098        1.32850
C         -0.71102       -2.79714        2.47784
S         -2.33219       -2.41583        2.37895
N         -0.20733       -3.20445        3.69046
N          0.91800       -4.14182        1.28482
C          0.08755       -5.18634        0.66287
C          0.30579       -5.42479       -0.84229
N          1.71967       -5.51901       -1.19942
C          2.57398       -4.47035       -0.64369
C          2.32061       -4.23291        0.85603
C          2.04066       -6.23303       -2.35007
O          1.20809       -6.82054       -3.03237
C          3.46944       -6.25197       -2.77583
C          4.54165       -6.88307       -1.91257
C          4.15522       -7.55011       -3.20686
C          3.42438       -8.86680       -3.11432
C          5.11699       -7.47072       -4.36413
H          1.50344       -0.04847        1.02816
H          0.88116        1.15000       -0.10800
H          1.75326       -0.26604       -0.71606
H         -0.95000       -0.31762        0.72544
H         -0.74611       -0.39895       -1.01573
H         -1.07272       -2.65284       -0.32702
H          0.59619       -2.45471       -0.80929
H          1.13227       -2.11845        1.72277
H          0.65483       -3.74093        3.68094
H         -0.85684       -3.37269        4.44864
H          0.33326       -6.12392        1.17981
H         -0.97825       -5.02494        0.85701
H         -0.12812       -4.61501       -1.43807
H         -0.21183       -6.34643       -1.13251
H          2.38658       -3.55969       -1.22154
H          3.62945       -4.71187       -0.78608
H          2.89664       -3.36304        1.19355
H          2.75253       -5.08695        1.39536
H          3.74194       -5.36422       -3.33898
H          4.24057       -7.35031       -0.98047
H          5.50246       -6.38393       -1.85334
H          4.14032       -9.69504       -3.08082
H          2.80194       -8.93730       -2.21608
H          2.78084       -9.00758       -3.98878
H          4.58123       -7.59062       -5.31145
H          5.64406       -6.51100       -4.39513
H          5.86934       -8.26288       -4.29036

--Link1--
%chk=JID_10655.chk
%mem=8GB
%nprocshared=4
# B3LYP/6-311++G(d,p) empiricaldispersion=gd3bj scf=xqc pop=npa geom=check

CID_107001585_JID_10655_Energie_neutraal

0 1

--Link1--
%chk=JID_10655.chk
%mem=8GB
%nprocshared=4
# B3LYP/6-311++G(d,p) empiricaldispersion=gd3bj scf=xqc pop=npa geom=check

CID_107001585_JID_10655_Energie_kation

1 2

--Link1--
%chk=JID_10655.chk
%mem=8GB
%nprocshared=4
# B3LYP/6-311++G(d,p) empiricaldispersion=gd3bj scf=xqc pop=npa geom=check

CID_107001585_JID_10655_Energie_anion

-1 2
