%chk=JID_10622.chk
%mem=8GB
%nprocshared=4
# opt freq B3LYP/6-31G(d) empiricaldispersion=gd3bj scf=xqc

CID_54520948_JID_10622_neutraal

0 1
C          0.99392       -0.08308       -0.05533
C          0.56717       -1.46478       -0.45389
O          0.17071       -2.31594        0.32938
O          0.72991       -1.60209       -1.82942
C          0.33007       -2.83335       -2.36661
C          1.23150       -3.66015       -3.03990
C          0.74090       -4.82284       -3.65707
C         -0.62047       -5.17089       -3.62947
C         -1.49650       -4.32029       -2.93795
C         -1.03108       -3.15569       -2.32536
C         -1.17075       -6.41897       -4.30843
C         -1.02051       -6.54722       -5.82943
C          0.37396       -6.44294       -6.37821
O          1.17602       -7.36529       -6.42307
O          0.61485       -5.18121       -6.83306
C          1.93311       -4.98524       -7.34779
O         -0.96959       -7.65292       -3.60763
C          0.35358       -7.98655       -3.23023
O          2.57471       -3.48559       -3.22919
C          3.26193       -2.58046       -2.38054
H          0.77983        0.06967        1.00632
H          0.43308        0.65932       -0.62893
H          2.06782        0.03344       -0.22001
H          1.46216       -5.46463       -4.15811
H         -2.55811       -4.55278       -2.87317
H         -1.73674       -2.50458       -1.81632
H         -2.26158       -6.31402       -4.21350
H         -1.42450       -7.50868       -6.17047
H         -1.62571       -5.77420       -6.32246
H          2.68709       -5.25636       -6.60178
H          2.06963       -5.56497       -8.26566
H          2.04995       -3.92417       -7.58443
H          1.04791       -7.93118       -4.06742
H          0.69207       -7.35123       -2.40754
H          0.34842       -9.01821       -2.86632
H          3.04680       -1.54485       -2.65954
H          3.04652       -2.77107       -1.32454
H          4.33501       -2.73851       -2.52777

--Link1--
%chk=JID_10622.chk
%mem=8GB
%nprocshared=4
# B3LYP/6-311++G(d,p) empiricaldispersion=gd3bj scf=xqc pop=npa geom=check

CID_54520948_JID_10622_Energie_neutraal

0 1

--Link1--
%chk=JID_10622.chk
%mem=8GB
%nprocshared=4
# B3LYP/6-311++G(d,p) empiricaldispersion=gd3bj scf=xqc pop=npa geom=check

CID_54520948_JID_10622_Energie_kation

1 2

--Link1--
%chk=JID_10622.chk
%mem=8GB
%nprocshared=4
# B3LYP/6-311++G(d,p) empiricaldispersion=gd3bj scf=xqc pop=npa geom=check

CID_54520948_JID_10622_Energie_anion

-1 2
