%chk=JID_8334.chk
%mem=8GB
%nprocshared=4
# opt freq B3LYP/6-31G(d) empiricaldispersion=gd3bj scf=xqc

CID_79673045_JID_8334_neutraal

0 1
C          0.90818        0.01253       -0.03757
C          0.29111        0.53123       -1.34009
C          0.78029       -0.23016       -2.59867
O         -0.01340       -1.35575       -2.97177
C          0.44508       -2.58306       -2.42654
N         -1.17598        0.70897       -1.30540
C         -1.69652        1.85814       -2.03908
C         -1.99378       -0.34087       -0.87019
O         -1.62123       -1.28079       -0.17265
C         -3.42412       -0.33200       -1.24022
C         -3.80599       -0.44821       -2.57698
C         -5.16041       -0.45347       -2.88241
C         -6.14433       -0.36792       -1.88601
C         -5.74867       -0.28156       -0.55020
C         -4.38705       -0.26991       -0.22617
O         -7.43570       -0.38502       -2.34752
C         -8.46360       -0.31535       -1.36556
O         -5.52443       -0.54768       -4.19883
H          0.71336       -1.04431        0.14766
H          0.52969        0.57880        0.82042
H          1.99699        0.13405       -0.06265
H          0.70926        1.54440       -1.42750
H          0.70422        0.46134       -3.44665
H          1.84083       -0.49920       -2.52008
H          1.46480       -2.79303       -2.76347
H          0.40528       -2.57928       -1.33712
H         -0.20792       -3.38168       -2.78922
H         -1.62475        1.65790       -3.11181
H         -2.73460        2.06996       -1.77288
H         -1.10480        2.74473       -1.79226
H         -3.06293       -0.54413       -3.36329
H         -6.46625       -0.22847        0.26146
H         -4.07352       -0.21801        0.81424
H         -8.42631       -1.17880       -0.69320
H         -8.41239        0.62516       -0.80710
H         -9.42534       -0.34072       -1.88691
H         -6.50139       -0.56235       -4.19108

--Link1--
%chk=JID_8334.chk
%mem=8GB
%nprocshared=4
# B3LYP/6-311++G(d,p) empiricaldispersion=gd3bj scf=xqc pop=npa geom=check

CID_79673045_JID_8334_Energie_neutraal

0 1

--Link1--
%chk=JID_8334.chk
%mem=8GB
%nprocshared=4
# B3LYP/6-311++G(d,p) empiricaldispersion=gd3bj scf=xqc pop=npa geom=check

CID_79673045_JID_8334_Energie_kation

1 2

--Link1--
%chk=JID_8334.chk
%mem=8GB
%nprocshared=4
# B3LYP/6-311++G(d,p) empiricaldispersion=gd3bj scf=xqc pop=npa geom=check

CID_79673045_JID_8334_Energie_anion

-1 2
