%chk=JID_6568.chk
%mem=8GB
%nprocshared=4
# opt freq B3LYP/6-31G(d) empiricaldispersion=gd3bj scf=xqc

CID_23262921_JID_6568_neutraal

0 1
C          1.07258       -0.00326        0.06871
N          0.12942       -0.92328       -0.49987
C         -0.30297       -2.06703        0.07971
O         -0.71342       -3.00565       -0.58889
N         -0.25679       -2.11814        1.42571
N          0.57433        0.69379        1.22012
C         -0.23267        1.74165        1.40433
O         -0.42194        2.12015        2.56138
N         -0.84781        2.39256        0.41416
C         -0.80581        2.24370       -1.00178
N         -1.72173        3.17545       -1.59529
C         -1.59986        3.59007       -2.87905
O         -2.57735        3.61811       -3.61875
N         -0.38059        3.96822       -3.33473
C          0.44293        4.87737       -2.59763
O          1.70483        4.82123       -3.21139
H          1.37671        0.70898       -0.69991
H          1.95840       -0.56727        0.38048
H          0.15834       -1.03659       -1.50468
H         -0.52283       -1.25934        1.89057
H         -0.70603       -2.94332        1.80450
H          0.96632        0.38907        2.10171
H         -1.38820        3.17608        0.75254
H          0.21432        2.39693       -1.35812
H         -1.13131        1.23817       -1.27847
H         -2.69047        2.94751       -1.41055
H         -0.46425        4.24144       -4.30621
H          0.03160        5.88757       -2.68375
H          0.52412        4.61389       -1.54092
H          1.85264        3.87889       -3.39233

--Link1--
%chk=JID_6568.chk
%mem=8GB
%nprocshared=4
# B3LYP/6-311++G(d,p) empiricaldispersion=gd3bj scf=xqc pop=npa geom=check

CID_23262921_JID_6568_Energie_neutraal

0 1

--Link1--
%chk=JID_6568.chk
%mem=8GB
%nprocshared=4
# B3LYP/6-311++G(d,p) empiricaldispersion=gd3bj scf=xqc pop=npa geom=check

CID_23262921_JID_6568_Energie_kation

1 2

--Link1--
%chk=JID_6568.chk
%mem=8GB
%nprocshared=4
# B3LYP/6-311++G(d,p) empiricaldispersion=gd3bj scf=xqc pop=npa geom=check

CID_23262921_JID_6568_Energie_anion

-1 2
