%chk=JID_1487.chk
%mem=8GB
%nprocshared=4
# opt freq B3LYP/6-31G(d) empiricaldispersion=gd3bj scf=xqc

CID_116239337_JID_1487_neutraal

0 1
C          1.05946        0.04994       -0.06302
C          0.51072        1.25598       -0.82859
C          0.95766        1.16653       -2.29426
C         -1.02775        1.35466       -0.72691
C         -1.57780        1.53983        0.70844
N         -1.28101        2.89072        1.21456
C         -1.84774        3.11797        2.55107
C         -1.03858        2.53221        3.72046
S          0.57082        3.36974        3.95775
C          1.68044        2.13864        3.23703
O         -1.47912        2.46855       -1.51081
H          0.61940       -0.88368       -0.42987
H          0.85779        0.11957        1.00852
H          2.14620       -0.02197       -0.18139
H          0.96141        2.16822       -0.41891
H          0.52178        0.29146       -2.78834
H          0.66130        2.05794       -2.85634
H          2.04794        1.08526       -2.36332
H         -1.47853        0.45488       -1.16221
H         -2.66877        1.43398        0.65517
H         -1.20405        0.76114        1.37836
H         -0.27400        3.05296        1.25573
H         -1.94211        4.20188        2.69162
H         -2.87297        2.72926        2.59178
H         -1.60827        2.68630        4.64334
H         -0.89780        1.45214        3.61374
H          1.51698        1.15597        3.68643
H          1.53944        2.08342        2.15705
H          2.71490        2.43682        3.42859
H         -1.53344        3.21681       -0.87997

--Link1--
%chk=JID_1487.chk
%mem=8GB
%nprocshared=4
# B3LYP/6-311++G(d,p) empiricaldispersion=gd3bj scf=xqc pop=npa geom=check

CID_116239337_JID_1487_Energie_neutraal

0 1

--Link1--
%chk=JID_1487.chk
%mem=8GB
%nprocshared=4
# B3LYP/6-311++G(d,p) empiricaldispersion=gd3bj scf=xqc pop=npa geom=check

CID_116239337_JID_1487_Energie_kation

1 2

--Link1--
%chk=JID_1487.chk
%mem=8GB
%nprocshared=4
# B3LYP/6-311++G(d,p) empiricaldispersion=gd3bj scf=xqc pop=npa geom=check

CID_116239337_JID_1487_Energie_anion

-1 2
