%chk=JID_9665.chk
%mem=8GB
%nprocshared=4
# opt freq B3LYP/6-31G(d) empiricaldispersion=gd3bj scf=xqc

CID_136569693_JID_9665_neutraal

0 1
C          0.96585       -0.07533       -0.05621
N          0.68139       -1.47076        0.21961
C          0.90325       -1.90700        1.59207
C          0.57539       -2.34797       -0.86540
O          0.85463       -1.99641       -2.01075
C          0.11843       -3.70280       -0.61368
C         -0.94594       -4.14180        0.15739
N         -0.93026       -5.51058        0.05186
N          0.01005       -5.98759       -0.78108
C          0.62740       -4.88238       -1.20567
N         -1.86696       -3.45520        0.88768
C         -3.09038       -4.07006        1.38488
C         -4.02181       -3.05109        2.08182
C         -3.33953       -2.35128        3.27333
C         -2.84910       -0.92088        3.04942
C         -3.95350        0.12454        3.19025
C         -4.90427        0.21543        2.00337
C         -5.62543       -1.08332        1.65746
C         -4.70011       -2.13542        1.05005
H          0.48595        0.54680        0.70498
H          0.58799        0.21894       -1.03956
H          2.04899        0.07647       -0.02995
H          0.91442       -2.99158        1.70358
H          1.87944       -1.53549        1.92086
H          0.12596       -1.47513        2.22736
H         -1.54890       -6.17226        0.50225
H          1.43710       -4.97018       -1.91959
H         -1.93325       -2.45307        0.70966
H         -3.63155       -4.54862        0.55893
H         -2.83120       -4.85784        2.10355
H         -4.82580       -3.66273        2.51856
H         -4.03878       -2.35056        4.12041
H         -2.49084       -2.96002        3.61163
H         -2.33347       -0.81249        2.09031
H         -2.10142       -0.70687        3.82428
H         -3.48155        1.10731        3.31583
H         -4.52615       -0.05702        4.10800
H         -4.35753        0.57917        1.12441
H         -5.65826        0.97952        2.23036
H         -6.39296       -0.84077        0.91137
H         -6.15596       -1.47991        2.53080
H         -3.96227       -1.65406        0.39793
H         -5.30578       -2.77276        0.39154

--Link1--
%chk=JID_9665.chk
%mem=8GB
%nprocshared=4
# B3LYP/6-311++G(d,p) empiricaldispersion=gd3bj scf=xqc pop=npa geom=check

CID_136569693_JID_9665_Energie_neutraal

0 1

--Link1--
%chk=JID_9665.chk
%mem=8GB
%nprocshared=4
# B3LYP/6-311++G(d,p) empiricaldispersion=gd3bj scf=xqc pop=npa geom=check

CID_136569693_JID_9665_Energie_kation

1 2

--Link1--
%chk=JID_9665.chk
%mem=8GB
%nprocshared=4
# B3LYP/6-311++G(d,p) empiricaldispersion=gd3bj scf=xqc pop=npa geom=check

CID_136569693_JID_9665_Energie_anion

-1 2
