%chk=JID_4787.chk
%mem=8GB
%nprocshared=4
# opt freq B3LYP/6-31G(d) empiricaldispersion=gd3bj scf=xqc

CID_66339471_JID_4787_neutraal

0 1
C         -1.09000        0.74600        0.20700
C         -1.39174       -0.63897       -0.30964
C         -0.10487       -1.38507        0.00313
O          0.94700       -0.41210       -0.18731
C          0.36715        0.90318       -0.17381
C          0.01004       -1.91798        1.44025
O         -0.94474       -2.92880        1.75065
C         -2.03159       -2.52518        2.58893
C         -1.60590       -2.23529        4.02431
C         -1.49653       -0.74643        4.24180
O         -2.36706        0.05150        3.91045
O         -0.28697       -0.45346        4.82394
N         -0.10519        0.99002        4.95827
N          0.34280        1.31732        6.27673
H         -1.72552        1.52305       -0.22601
H         -1.20532        0.78210        1.29572
H         -1.52516       -0.58814       -1.39810
H         -2.29635       -1.08290        0.10540
H          0.03715       -2.21067       -0.70275
H          0.47149        1.32160       -1.18037
H          0.91616        1.53878        0.52668
H          0.99938       -2.37969        1.54703
H          0.00418       -1.09790        2.16221
H         -2.57879       -1.69969        2.12738
H         -2.71469       -3.38181        2.60444
H         -2.36362       -2.59236        4.73055
H         -0.65767       -2.72979        4.26004
H          0.62825        1.15871        4.26019
H          0.45972        2.33057        6.36914
H         -0.38423        1.08246        6.95777

--Link1--
%chk=JID_4787.chk
%mem=8GB
%nprocshared=4
# B3LYP/6-311++G(d,p) empiricaldispersion=gd3bj scf=xqc pop=npa geom=check

CID_66339471_JID_4787_Energie_neutraal

0 1

--Link1--
%chk=JID_4787.chk
%mem=8GB
%nprocshared=4
# B3LYP/6-311++G(d,p) empiricaldispersion=gd3bj scf=xqc pop=npa geom=check

CID_66339471_JID_4787_Energie_kation

1 2

--Link1--
%chk=JID_4787.chk
%mem=8GB
%nprocshared=4
# B3LYP/6-311++G(d,p) empiricaldispersion=gd3bj scf=xqc pop=npa geom=check

CID_66339471_JID_4787_Energie_anion

-1 2
