%chk=JID_9120.chk
%mem=8GB
%nprocshared=4
# opt freq B3LYP/6-31G(d) empiricaldispersion=gd3bj scf=xqc

CID_43727259_JID_9120_neutraal

0 1
C          0.92925       -0.06130        0.03516
C          0.57473        1.40707        0.21124
C          1.01189        2.28322       -0.98365
C          0.26722        1.94998       -2.29528
C         -1.24461        2.12021       -2.24806
C          0.88643        3.78545       -0.63694
N          1.99784        4.17621        0.22587
C          2.15049        5.48916        0.67166
C          3.15450        5.74520        1.62498
C          3.45760        7.03946        2.08500
C          2.72699        8.10110        1.54753
C          1.74713        7.87588        0.57723
C          1.47408        6.58157        0.13285
N          4.48795        7.24062        3.04139
C          5.28850        6.17790        3.56750
C          6.38788        6.90778        4.29094
O          5.84653        8.19551        4.57304
C          4.79796        8.41604        3.71200
O          4.26316        9.50992        3.63167
H          0.38225       -0.51123       -0.79818
H          0.66989       -0.62078        0.93987
H          2.00162       -0.18823       -0.14359
H         -0.50171        1.50503        0.39052
H          1.06466        1.75193        1.12857
H          2.07478        2.07533       -1.17459
H          0.66202        2.58832       -3.09610
H          0.49603        0.92162       -2.59798
H         -1.52760        3.13585       -1.95744
H         -1.67032        1.92689       -3.23846
H         -1.70659        1.41547       -1.55099
H          0.93002        4.37006       -1.56321
H         -0.07158        3.98787       -0.14327
H          2.20889        3.50261        0.95608
H          3.70493        4.88910        2.00233
H          2.90979        9.13006        1.84200
H          1.20464        8.71889        0.15626
H          0.72152        6.45388       -0.63844
H          4.67906        5.59319        4.26584
H          5.69566        5.52640        2.78856
H          6.67812        6.40537        5.21813
H          7.27790        7.03697        3.66553

--Link1--
%chk=JID_9120.chk
%mem=8GB
%nprocshared=4
# B3LYP/6-311++G(d,p) empiricaldispersion=gd3bj scf=xqc pop=npa geom=check

CID_43727259_JID_9120_Energie_neutraal

0 1

--Link1--
%chk=JID_9120.chk
%mem=8GB
%nprocshared=4
# B3LYP/6-311++G(d,p) empiricaldispersion=gd3bj scf=xqc pop=npa geom=check

CID_43727259_JID_9120_Energie_kation

1 2

--Link1--
%chk=JID_9120.chk
%mem=8GB
%nprocshared=4
# B3LYP/6-311++G(d,p) empiricaldispersion=gd3bj scf=xqc pop=npa geom=check

CID_43727259_JID_9120_Energie_anion

-1 2
