%chk=JID_5344.chk
%mem=8GB
%nprocshared=4
# opt freq B3LYP/6-31G(d) empiricaldispersion=gd3bj scf=xqc

CID_111702778_JID_5344_neutraal

0 1
C          0.97704       -0.00491       -0.09720
C         -0.08647        0.81687       -0.80642
N         -0.35828        0.27348       -2.13266
C         -1.06537       -0.88137       -2.30464
N         -0.75627       -1.89375       -3.03727
C          0.49294       -1.87363       -3.77852
N         -2.25174       -0.95640       -1.63891
C         -3.27481        0.08095       -1.77624
C         -3.78840        0.23796       -3.22592
C         -4.50062       -1.02502       -3.72545
C         -4.68659        1.45704       -3.34766
C         -4.35350        2.59855       -4.05583
S         -5.56691        3.80084       -3.99446
C         -6.56544        2.81801       -3.01876
C         -5.98300        1.60042       -2.74553
H          0.63832       -1.03288        0.06864
H          1.21242        0.43674        0.87604
H          1.89960       -0.04719       -0.68583
H         -0.98926        0.86577       -0.19027
H          0.27247        1.84497       -0.92504
H          0.47683        0.30452       -2.70374
H          0.50084       -1.07529       -4.52771
H          1.35571       -1.76761       -3.11261
H          0.60739       -2.82303       -4.31094
H         -2.64263       -1.87838       -1.81511
H         -4.10650       -0.17693       -1.10901
H         -2.88737        1.04013       -1.41412
H         -2.92488        0.39873       -3.88615
H         -5.33189       -1.30558       -3.06937
H         -4.90800       -0.87113       -4.73116
H         -3.81241       -1.87448       -3.77719
H         -3.44475        2.78768       -4.61180
H         -7.53117        3.17851       -2.69220
H         -6.46842        0.84355       -2.14067

--Link1--
%chk=JID_5344.chk
%mem=8GB
%nprocshared=4
# B3LYP/6-311++G(d,p) empiricaldispersion=gd3bj scf=xqc pop=npa geom=check

CID_111702778_JID_5344_Energie_neutraal

0 1

--Link1--
%chk=JID_5344.chk
%mem=8GB
%nprocshared=4
# B3LYP/6-311++G(d,p) empiricaldispersion=gd3bj scf=xqc pop=npa geom=check

CID_111702778_JID_5344_Energie_kation

1 2

--Link1--
%chk=JID_5344.chk
%mem=8GB
%nprocshared=4
# B3LYP/6-311++G(d,p) empiricaldispersion=gd3bj scf=xqc pop=npa geom=check

CID_111702778_JID_5344_Energie_anion

-1 2
