%chk=JID_8127.chk
%mem=8GB
%nprocshared=4
# opt freq B3LYP/6-31G(d) empiricaldispersion=gd3bj scf=xqc

CID_55093516_JID_8127_neutraal

0 1
C          2.49600       -0.00700       -0.12600
C          1.05299        0.04228        0.36736
C          0.39813        1.37971        0.00413
C         -1.06355        1.42038        0.44649
C         -1.90433        0.25881       -0.13247
C         -1.21704       -1.07031        0.24197
C          0.24658       -1.13466       -0.19275
C         -2.18105        0.39981       -1.66266
C         -3.08001       -0.72013       -2.26731
C         -4.40824       -0.97405       -1.58729
C         -5.47121       -0.06691       -1.70360
C         -6.68314       -0.27672       -1.03698
C         -6.85490       -1.43217       -0.27637
C         -5.81924       -2.36252       -0.17976
C         -4.60586       -2.13556       -0.82928
O         -7.61246        0.71157       -1.21468
C         -8.76575        0.65685       -0.38394
N         -2.72643        1.73509       -1.96193
H          2.54737        0.07340       -1.21715
H          3.08116        0.81395        0.30163
H          2.97480       -0.94732        0.16690
H          1.07115       -0.04445        1.46219
H          0.94130        2.19987        0.48918
H          0.46648        1.55602       -1.07604
H         -1.49804        2.39282        0.19108
H         -1.09719        1.36092        1.54279
H         -2.87255        0.28626        0.38582
H         -1.75035       -1.92909       -0.17142
H         -1.26148       -1.18943        1.33289
H          0.30878       -1.15146       -1.28744
H          0.68140       -2.07861        0.15799
H         -1.22680        0.34730       -2.19953
H         -3.27953       -0.49656       -3.32496
H         -2.50446       -1.65451       -2.29482
H         -5.36727        0.82490       -2.31670
H         -7.78291       -1.64398        0.24276
H         -5.95760       -3.26832        0.40565
H         -3.81638       -2.87773       -0.73774
H         -9.39234       -0.20357       -0.63975
H         -8.49253        0.64596        0.67687
H         -9.35218        1.56251       -0.56602
H         -3.02977        1.77936       -2.93325
H         -3.55620        1.89553       -1.39080

--Link1--
%chk=JID_8127.chk
%mem=8GB
%nprocshared=4
# B3LYP/6-311++G(d,p) empiricaldispersion=gd3bj scf=xqc pop=npa geom=check

CID_55093516_JID_8127_Energie_neutraal

0 1

--Link1--
%chk=JID_8127.chk
%mem=8GB
%nprocshared=4
# B3LYP/6-311++G(d,p) empiricaldispersion=gd3bj scf=xqc pop=npa geom=check

CID_55093516_JID_8127_Energie_kation

1 2

--Link1--
%chk=JID_8127.chk
%mem=8GB
%nprocshared=4
# B3LYP/6-311++G(d,p) empiricaldispersion=gd3bj scf=xqc pop=npa geom=check

CID_55093516_JID_8127_Energie_anion

-1 2
