%chk=JID_8128.chk
%mem=8GB
%nprocshared=4
# opt freq B3LYP/6-31G(d) empiricaldispersion=gd3bj scf=xqc

CID_82665140_JID_8128_neutraal

0 1
C          1.05309       -0.05163       -0.06720
C          0.49461        1.06809        0.75285
C         -0.36731        0.97176        1.86788
C         -1.06062       -0.04602        2.63425
C         -1.76052        0.62459        3.63185
N         -1.53356        1.96268        3.50859
C         -0.69629        2.18946        2.45862
N         -0.29378        3.41621        2.10618
C          0.52212        3.39677        1.05173
N          0.93130        2.30708        0.37716
O          0.96590        4.64297        0.65957
C          1.82326        4.59952       -0.47206
C         -1.11459       -1.54512        2.48446
C          0.25961       -2.24356        2.57651
O          0.15193       -3.66132        2.36956
C         -0.49300       -3.94112        1.12113
C         -1.89971       -3.32739        1.07918
N         -1.89132       -1.86791        1.27181
H          1.33011        0.30871       -1.06413
H          0.33516       -0.85740       -0.20875
H          1.95653       -0.44383        0.40806
H         -2.41302        0.24864        4.40987
H         -1.91612        2.69637        4.08761
H          2.73864        4.03671       -0.25790
H          1.30703        4.19320       -1.34899
H          2.11579        5.62734       -0.70839
H         -1.70757       -1.93887        3.32362
H          0.98334       -1.85262        1.86050
H          0.68890       -2.09151        3.57328
H         -0.56007       -5.02892        1.02013
H          0.12979       -3.56679        0.29988
H         -2.51816       -3.77668        1.86554
H         -2.37671       -3.55801        0.12088
H         -1.46408       -1.42477        0.46524

--Link1--
%chk=JID_8128.chk
%mem=8GB
%nprocshared=4
# B3LYP/6-311++G(d,p) empiricaldispersion=gd3bj scf=xqc pop=npa geom=check

CID_82665140_JID_8128_Energie_neutraal

0 1

--Link1--
%chk=JID_8128.chk
%mem=8GB
%nprocshared=4
# B3LYP/6-311++G(d,p) empiricaldispersion=gd3bj scf=xqc pop=npa geom=check

CID_82665140_JID_8128_Energie_kation

1 2

--Link1--
%chk=JID_8128.chk
%mem=8GB
%nprocshared=4
# B3LYP/6-311++G(d,p) empiricaldispersion=gd3bj scf=xqc pop=npa geom=check

CID_82665140_JID_8128_Energie_anion

-1 2
