%chk=JID_4156.chk
%mem=8GB
%nprocshared=4
# opt freq B3LYP/6-31G(d) empiricaldispersion=gd3bj scf=xqc

CID_82398504_JID_4156_neutraal

0 1
C         -2.50000        1.15000       -0.03300
C         -1.28780        0.26965       -0.02211
C         -1.34059       -1.06874        0.08314
C         -0.11672       -1.86251        0.08762
C          1.06537       -1.23452       -0.00819
C          1.15171        0.22936       -0.15605
O          2.19789        0.84835       -0.30590
N         -0.06279        0.88911       -0.13434
N          2.28281       -1.97600       -0.08365
O          3.04823       -1.90612        0.88529
O          2.46966       -2.63710       -1.11512
C         -0.18583       -3.32798        0.23883
O          0.55739       -4.02070        0.90494
O         -1.21250       -3.85252       -0.45051
H         -2.47040        1.85021        0.80834
H         -2.54518        1.72652       -0.96287
H         -3.42558        0.57015        0.04622
H         -2.29120       -1.58979        0.16916
H         -0.00931        1.89854       -0.23212
H         -1.13475       -4.81932       -0.29772

--Link1--
%chk=JID_4156.chk
%mem=8GB
%nprocshared=4
# B3LYP/6-311++G(d,p) empiricaldispersion=gd3bj scf=xqc pop=npa geom=check

CID_82398504_JID_4156_Energie_neutraal

0 1

--Link1--
%chk=JID_4156.chk
%mem=8GB
%nprocshared=4
# B3LYP/6-311++G(d,p) empiricaldispersion=gd3bj scf=xqc pop=npa geom=check

CID_82398504_JID_4156_Energie_kation

1 2

--Link1--
%chk=JID_4156.chk
%mem=8GB
%nprocshared=4
# B3LYP/6-311++G(d,p) empiricaldispersion=gd3bj scf=xqc pop=npa geom=check

CID_82398504_JID_4156_Energie_anion

-1 2
