%chk=JID_3944.chk
%mem=8GB
%nprocshared=4
# opt freq B3LYP/6-31G(d) empiricaldispersion=gd3bj scf=xqc

CID_115073715_JID_3944_neutraal

0 1
C          1.52000        0.00000        0.20800
C          0.68027       -1.23267       -0.09991
C         -0.67755       -1.15134        0.58135
O         -1.35216        0.06388        0.26124
C         -0.63788        1.26770        0.61163
C          0.72262        1.26432       -0.09062
C         -0.62060        1.44532        2.14395
C         -0.17975        2.81513        2.68588
C          1.33362        3.06620        2.66980
C          1.64320        3.93607        3.89465
C          0.33940        4.09111        4.66493
C         -0.53663        2.94905        4.17326
O         -0.84418        3.83969        1.94767
H          1.82775       -0.01275        1.25965
H          2.43612       -0.01451       -0.39290
H          0.53145       -1.29056       -1.18538
H          1.20770       -2.14172        0.20751
H         -1.30922       -1.97693        0.23709
H         -0.58619       -1.25574        1.66725
H         -1.23211        2.08258        0.18259
H          1.30859        2.15339        0.14647
H          0.54617        1.29552       -1.17445
H         -1.65126        1.26380        2.48257
H         -0.02578        0.65790        2.62123
H          1.89538        2.12895        2.75347
H          1.66076        3.58494        1.76328
H          2.04398        4.91273        3.60327
H          2.40171        3.44642        4.51603
H         -0.12382        5.05644        4.43008
H          0.49333        4.05589        5.74772
H         -1.59588        3.17431        4.33430
H         -0.28425        2.03309        4.72151
H         -0.54783        4.70698        2.27058

--Link1--
%chk=JID_3944.chk
%mem=8GB
%nprocshared=4
# B3LYP/6-311++G(d,p) empiricaldispersion=gd3bj scf=xqc pop=npa geom=check

CID_115073715_JID_3944_Energie_neutraal

0 1

--Link1--
%chk=JID_3944.chk
%mem=8GB
%nprocshared=4
# B3LYP/6-311++G(d,p) empiricaldispersion=gd3bj scf=xqc pop=npa geom=check

CID_115073715_JID_3944_Energie_kation

1 2

--Link1--
%chk=JID_3944.chk
%mem=8GB
%nprocshared=4
# B3LYP/6-311++G(d,p) empiricaldispersion=gd3bj scf=xqc pop=npa geom=check

CID_115073715_JID_3944_Energie_anion

-1 2
