%chk=JID_10832.chk
%mem=8GB
%nprocshared=4
# opt freq B3LYP/6-31G(d) empiricaldispersion=gd3bj scf=xqc

CID_104342234_JID_10832_neutraal

0 1
C          0.93545        0.00039       -0.07638
C          0.44148        1.43130        0.10562
C          0.63052        2.31108       -1.15505
C         -0.21176        1.78136       -2.30897
N         -1.46247        1.36990       -2.20841
C         -1.92823        0.98215       -3.44857
C         -1.02898        1.09537       -4.48535
S          0.45635        1.71298       -3.89835
N          0.28695        3.71139       -0.83838
C          1.21577        4.44113       -0.10477
N          0.77876        4.93690        1.05600
C          1.64756        5.67897        1.76742
N          2.91570        5.94349        1.39417
C          3.33142        5.43634        0.22618
C          2.49335        4.67652       -0.56573
N          4.62168        5.72207       -0.25601
C          5.45244        6.50123        0.64675
C          1.16832        6.28015        3.07354
O          0.40436        7.48596        2.92725
C          1.19306        8.58227        2.48280
H          0.35843       -0.53396       -0.83682
H          0.83740       -0.55196        0.86374
H          1.99029       -0.01450       -0.36843
H         -0.61406        1.41199        0.40595
H          0.99135        1.86869        0.94826
H          1.68540        2.24586       -1.45348
H         -2.94525        0.62128       -3.54254
H         -1.17141        0.85644       -5.52915
H         -0.58972        3.75027       -0.31833
H          2.81541        4.32137       -1.53491
H          5.07649        4.86307       -0.55016
H          5.62988        5.97101        1.58875
H          6.42503        6.67420        0.17493
H          5.01115        7.48252        0.85298
H          0.52010        5.55003        3.57057
H          2.01580        6.46012        3.74600
H          2.05439        8.73494        3.14028
H          1.52317        8.43300        1.45104
H          0.57182        9.48167        2.51296

--Link1--
%chk=JID_10832.chk
%mem=8GB
%nprocshared=4
# B3LYP/6-311++G(d,p) empiricaldispersion=gd3bj scf=xqc pop=npa geom=check

CID_104342234_JID_10832_Energie_neutraal

0 1

--Link1--
%chk=JID_10832.chk
%mem=8GB
%nprocshared=4
# B3LYP/6-311++G(d,p) empiricaldispersion=gd3bj scf=xqc pop=npa geom=check

CID_104342234_JID_10832_Energie_kation

1 2

--Link1--
%chk=JID_10832.chk
%mem=8GB
%nprocshared=4
# B3LYP/6-311++G(d,p) empiricaldispersion=gd3bj scf=xqc pop=npa geom=check

CID_104342234_JID_10832_Energie_anion

-1 2
