%chk=JID_5843.chk
%mem=8GB
%nprocshared=4
# opt freq B3LYP/6-31G(d) empiricaldispersion=gd3bj scf=xqc

CID_84122995_JID_5843_neutraal

0 1
C          1.07258       -0.06879       -0.00112
C          0.85961        0.09338       -1.51118
C          1.26736        1.49868       -1.97309
N          2.70517        1.68026       -2.10865
C          3.47216        0.65320       -2.65487
O          4.55516        0.87562       -3.20418
C          3.00225       -0.80182       -2.43606
N          1.53243       -0.95632       -2.28577
C          0.86029       -1.44024       -3.51009
C         -0.32264       -0.78101       -4.16863
C          1.02110       -0.71926       -4.82516
C          3.81675       -1.41274       -1.27978
C          3.42575       -2.83606       -0.90379
O          3.54772       -3.71557       -2.01235
C          3.17307        3.04228       -2.28985
H          0.88710       -1.09992        0.31716
H          0.36703        0.56865        0.54480
H          2.07392        0.22556        0.32024
H         -0.22577       -0.00615       -1.63484
H          0.82787        1.71804       -2.95276
H          0.88912        2.24849       -1.26805
H          3.30741       -1.33944       -3.34533
H          0.86386       -2.52886       -3.57188
H         -1.07204       -1.42883       -4.61200
H         -0.73453        0.14607       -3.79557
H          1.52412        0.23932       -4.85463
H          1.18442       -1.32144       -5.71204
H          4.87084       -1.42394       -1.59061
H          3.78401       -0.77895       -0.38905
H          4.09509       -3.20199       -0.11852
H          2.40482       -2.89602       -0.51480
H          2.79443       -3.53043       -2.59923
H          2.86576        3.39508       -3.27895
H          2.74117        3.68140       -1.51459
H          4.26357        3.09071       -2.21733

--Link1--
%chk=JID_5843.chk
%mem=8GB
%nprocshared=4
# B3LYP/6-311++G(d,p) empiricaldispersion=gd3bj scf=xqc pop=npa geom=check

CID_84122995_JID_5843_Energie_neutraal

0 1

--Link1--
%chk=JID_5843.chk
%mem=8GB
%nprocshared=4
# B3LYP/6-311++G(d,p) empiricaldispersion=gd3bj scf=xqc pop=npa geom=check

CID_84122995_JID_5843_Energie_kation

1 2

--Link1--
%chk=JID_5843.chk
%mem=8GB
%nprocshared=4
# B3LYP/6-311++G(d,p) empiricaldispersion=gd3bj scf=xqc pop=npa geom=check

CID_84122995_JID_5843_Energie_anion

-1 2
