%chk=JID_6159.chk
%mem=8GB
%nprocshared=4
# opt freq B3LYP/6-31G(d) empiricaldispersion=gd3bj scf=xqc

CID_105825062_JID_6159_neutraal

0 1
C          1.05528        0.03252       -0.07672
C         -0.10413       -0.96800        0.10020
C          0.28816       -2.37673       -0.45982
N          1.28995       -3.06394        0.35111
C          0.92254       -3.11396        1.77134
C          0.51385       -1.73253        2.33030
N         -0.51089       -1.04212        1.52711
C          1.86406       -4.31083       -0.17906
C          1.04837       -5.46397       -0.87635
C         -0.21420       -5.90330       -0.11268
C         -1.25398       -6.23785       -1.17735
C         -0.95338       -5.26693       -2.30356
C          0.56559       -5.10721       -2.30273
S          2.30770       -6.86680       -0.98919
C          1.33816       -8.25349       -1.62723
C         -1.31552       -0.44064       -0.69124
H          0.80076        1.01174        0.34554
H          1.27939        0.18283       -1.13936
H          1.98070       -0.30584        0.40010
H         -0.61849       -2.98662       -0.51684
H          0.66762       -2.24071       -1.47859
H          1.77177       -3.47203        2.36578
H          0.09634       -3.81069        1.94116
H          1.39888       -1.09382        2.43099
H          0.12301       -1.86320        3.34615
H         -1.36674       -1.59403        1.58303
H          2.62197       -3.98215       -0.90591
H          2.45369       -4.74778        0.63976
H         -0.05269       -6.73356        0.58207
H         -0.62740       -5.08378        0.47702
H         -2.27461       -6.11899       -0.79997
H         -1.15724       -7.26932       -1.52470
H         -1.43750       -4.30401       -2.11086
H         -1.32560       -5.62957       -3.26677
H          0.84221       -4.09536       -2.61024
H          0.98924       -5.76603       -3.06922
H          0.60919       -8.59147       -0.88765
H          0.84448       -8.00362       -2.56824
H          2.01845       -9.08787       -1.82187
H         -1.62191        0.55169       -0.33975
H         -1.08128       -0.35653       -1.75873
H         -2.17964       -1.10880       -0.59628

--Link1--
%chk=JID_6159.chk
%mem=8GB
%nprocshared=4
# B3LYP/6-311++G(d,p) empiricaldispersion=gd3bj scf=xqc pop=npa geom=check

CID_105825062_JID_6159_Energie_neutraal

0 1

--Link1--
%chk=JID_6159.chk
%mem=8GB
%nprocshared=4
# B3LYP/6-311++G(d,p) empiricaldispersion=gd3bj scf=xqc pop=npa geom=check

CID_105825062_JID_6159_Energie_kation

1 2

--Link1--
%chk=JID_6159.chk
%mem=8GB
%nprocshared=4
# B3LYP/6-311++G(d,p) empiricaldispersion=gd3bj scf=xqc pop=npa geom=check

CID_105825062_JID_6159_Energie_anion

-1 2
