%chk=JID_9243.chk
%mem=8GB
%nprocshared=4
# opt freq B3LYP/6-31G(d) empiricaldispersion=gd3bj scf=xqc

CID_60960351_JID_9243_neutraal

0 1
C          1.06943       -0.07196       -0.00002
C          1.60412        1.17772       -0.67587
O          1.79674        0.90832       -2.07019
C          3.09803        1.09777       -2.45259
C          3.46565        2.15323       -3.29308
C          4.81534        2.31225       -3.62767
C          5.78133        1.40921       -3.17326
C          5.41235        0.33480       -2.35904
C          4.06106        0.17939       -2.01679
C          6.42914       -0.66533       -1.86459
N          6.40468       -1.87846       -2.68232
C          7.09215       -2.99263       -2.00768
C          6.27161       -3.60570       -0.89518
N          4.97237       -3.42958       -0.73289
C          4.54212       -4.13270        0.37422
C          5.51536       -4.83915        1.04577
S          7.02776       -4.62275        0.26990
O          2.64413        3.11986       -3.80915
C          1.31701        2.70997       -4.11824
H          0.15300       -0.41388       -0.49231
H          0.85180        0.12063        1.05436
H          1.78985       -0.89305       -0.06366
H          0.86003        1.97836       -0.60030
H          2.51219        1.52934       -0.16882
H          5.11474        3.14139       -4.26430
H          6.81910        1.54538       -3.46801
H          3.75985       -0.66802       -1.40490
H          7.43165       -0.22147       -1.89489
H          6.21197       -0.86832       -0.80825
H          5.42800       -2.16601       -2.79000
H          7.27234       -3.77204       -2.75749
H          8.07427       -2.66807       -1.64334
H          3.49522       -4.09675        0.65055
H          5.41245       -5.45510        1.92733
H          1.28113        1.70644       -4.55619
H          0.67663        2.78548       -3.23478
H          0.92257        3.40670       -4.86475

--Link1--
%chk=JID_9243.chk
%mem=8GB
%nprocshared=4
# B3LYP/6-311++G(d,p) empiricaldispersion=gd3bj scf=xqc pop=npa geom=check

CID_60960351_JID_9243_Energie_neutraal

0 1

--Link1--
%chk=JID_9243.chk
%mem=8GB
%nprocshared=4
# B3LYP/6-311++G(d,p) empiricaldispersion=gd3bj scf=xqc pop=npa geom=check

CID_60960351_JID_9243_Energie_kation

1 2

--Link1--
%chk=JID_9243.chk
%mem=8GB
%nprocshared=4
# B3LYP/6-311++G(d,p) empiricaldispersion=gd3bj scf=xqc pop=npa geom=check

CID_60960351_JID_9243_Energie_anion

-1 2
