%chk=JID_6764.chk
%mem=8GB
%nprocshared=4
# opt freq B3LYP/6-31G(d) empiricaldispersion=gd3bj scf=xqc

CID_60951664_JID_6764_neutraal

0 1
C          1.07746       -0.01519        0.06139
C          0.36087       -0.15199        1.37841
O         -0.31554        0.76940        1.83998
C          0.49306       -1.45546        2.11623
C          0.06826       -2.64564        1.29612
O          0.93064       -3.35412        0.77241
N         -1.29196       -2.91105        1.16485
C         -1.66453       -3.96817        0.21328
C         -3.04840       -4.55723        0.49867
N         -4.09469       -3.48952        0.56135
C         -3.74197       -2.48318        1.60729
C         -2.33025       -1.89901        1.42459
S         -4.62080       -2.90052       -0.94288
O         -3.79285       -1.77073       -1.30052
O         -4.76535       -4.03178       -1.83346
C         -6.25577       -2.31256       -0.55281
H          1.05293        1.02942       -0.26151
H          0.58587       -0.63225       -0.69429
H          2.12150       -0.31723        0.17633
H          1.54542       -1.57843        2.39830
H         -0.06677       -1.42242        3.05578
H         -1.62514       -3.52853       -0.79027
H         -0.92238       -4.77366        0.24502
H         -3.03960       -5.07201        1.46805
H         -3.30994       -5.31677       -0.24448
H         -3.79960       -2.99121        2.57860
H         -4.48397       -1.68015        1.64123
H         -2.08183       -1.33169        2.32497
H         -2.30290       -1.19424        0.58781
H         -6.83215       -3.13186       -0.11946
H         -6.18772       -1.46931        0.13503
H         -6.72283       -1.98607       -1.48490

--Link1--
%chk=JID_6764.chk
%mem=8GB
%nprocshared=4
# B3LYP/6-311++G(d,p) empiricaldispersion=gd3bj scf=xqc pop=npa geom=check

CID_60951664_JID_6764_Energie_neutraal

0 1

--Link1--
%chk=JID_6764.chk
%mem=8GB
%nprocshared=4
# B3LYP/6-311++G(d,p) empiricaldispersion=gd3bj scf=xqc pop=npa geom=check

CID_60951664_JID_6764_Energie_kation

1 2

--Link1--
%chk=JID_6764.chk
%mem=8GB
%nprocshared=4
# B3LYP/6-311++G(d,p) empiricaldispersion=gd3bj scf=xqc pop=npa geom=check

CID_60951664_JID_6764_Energie_anion

-1 2
