%chk=JID_9407.chk
%mem=8GB
%nprocshared=4
# opt freq B3LYP/6-31G(d) empiricaldispersion=gd3bj scf=xqc

CID_106908861_JID_9407_neutraal

0 1
C          1.06435        0.01253        0.07551
C          0.29071        0.98955        0.95009
C          0.70873        2.44883        0.74917
C          0.62491        2.95139       -0.69377
C         -0.79909        3.06779       -1.24859
C         -1.58982        4.29812       -0.78276
C         -0.97044        5.66996       -1.07697
O         -1.25509        6.21029       -2.36548
C         -0.70980        5.54963       -3.50679
C          0.77966        5.24100       -3.50648
N          1.62236        6.07402       -2.84936
C          2.93461        5.73083       -2.80924
C          3.46382        4.60578       -3.42805
C          2.59760        3.79170       -4.14521
C          1.24276        4.11386       -4.19128
C          3.82585        6.61284       -2.00990
O          3.68271        6.70519       -0.79420
N          4.85079        7.29174       -2.66224
N          4.92379        7.48275       -4.05473
H          0.79101        0.11246       -0.97894
H          0.83667       -1.01600        0.37419
H          2.14404        0.16192        0.17468
H         -0.78278        0.86930        0.76940
H          0.45779        0.72630        2.00169
H          0.10594        3.08837        1.40414
H          1.74735        2.55722        1.08714
H          1.14280        3.91204       -0.75037
H          1.19951        2.28419       -1.34570
H         -0.74914        3.05594       -2.33886
H         -1.37378        2.17145       -0.98887
H         -2.58829        4.25420       -1.23451
H         -1.72821        4.21329        0.30206
H         -1.43242        6.37777       -0.37759
H          0.09653        5.71904       -0.85542
H         -1.29629        4.64213       -3.68303
H         -0.90230        6.20234       -4.36609
H          4.51685        4.36250       -3.34014
H          2.96657        2.89991       -4.64488
H          0.55279        3.46894       -4.72858
H          5.37279        7.92734       -2.05892
H          5.14846        6.59911       -4.51465
H          4.00590        7.77721       -4.40305

--Link1--
%chk=JID_9407.chk
%mem=8GB
%nprocshared=4
# B3LYP/6-311++G(d,p) empiricaldispersion=gd3bj scf=xqc pop=npa geom=check

CID_106908861_JID_9407_Energie_neutraal

0 1

--Link1--
%chk=JID_9407.chk
%mem=8GB
%nprocshared=4
# B3LYP/6-311++G(d,p) empiricaldispersion=gd3bj scf=xqc pop=npa geom=check

CID_106908861_JID_9407_Energie_kation

1 2

--Link1--
%chk=JID_9407.chk
%mem=8GB
%nprocshared=4
# B3LYP/6-311++G(d,p) empiricaldispersion=gd3bj scf=xqc pop=npa geom=check

CID_106908861_JID_9407_Energie_anion

-1 2
