%chk=JID_8514.chk
%mem=8GB
%nprocshared=4
# opt freq B3LYP/6-31G(d) empiricaldispersion=gd3bj scf=xqc

CID_117368226_JID_8514_neutraal

0 1
C          0.93170       -0.01553        0.07137
C          0.09472       -0.23693       -1.18006
N          0.56946       -1.34942       -1.96132
C          1.40185       -1.29617       -3.05595
C          1.61650       -2.60636       -3.42718
C          2.40800       -2.93245       -4.50462
C          2.99242       -1.88082       -5.21963
C          2.78465       -0.52838       -4.85409
C          1.96457       -0.23899       -3.74233
C          3.39373        0.62993       -5.64229
C          2.52706        1.01959       -6.85312
C          2.81828        0.16658       -8.08642
C          4.31238        0.12143       -8.39350
N          5.07666       -0.38071       -7.25425
C          4.87317        0.44347       -6.05700
O          0.96061       -3.51469       -2.61340
C          0.31480       -2.68068       -1.69107
O         -0.37436       -3.10970       -0.77489
H          0.92093       -0.90046        0.71604
H          0.54163        0.83055        0.64526
H          1.97424        0.19611       -0.18803
H         -0.93729       -0.45196       -0.87950
H          0.07433        0.66941       -1.79388
H          2.57081       -3.96475       -4.79270
H          3.61282       -2.12982       -6.07853
H          1.77715        0.78544       -3.44102
H          3.38973        1.49261       -4.95993
H          1.45853        0.97286       -6.61149
H          2.74265        2.06579       -7.10869
H          2.43591       -0.85023       -7.93890
H          2.28150        0.57892       -8.94881
H          4.48200       -0.53890       -9.25106
H          4.67227        1.11698       -8.68057
H          6.06917       -0.39227       -7.48970
H          5.31174        1.43259       -6.24468
H          5.44100        0.00577       -5.22754

--Link1--
%chk=JID_8514.chk
%mem=8GB
%nprocshared=4
# B3LYP/6-311++G(d,p) empiricaldispersion=gd3bj scf=xqc pop=npa geom=check

CID_117368226_JID_8514_Energie_neutraal

0 1

--Link1--
%chk=JID_8514.chk
%mem=8GB
%nprocshared=4
# B3LYP/6-311++G(d,p) empiricaldispersion=gd3bj scf=xqc pop=npa geom=check

CID_117368226_JID_8514_Energie_kation

1 2

--Link1--
%chk=JID_8514.chk
%mem=8GB
%nprocshared=4
# B3LYP/6-311++G(d,p) empiricaldispersion=gd3bj scf=xqc pop=npa geom=check

CID_117368226_JID_8514_Energie_anion

-1 2
