%chk=JID_7430.chk
%mem=8GB
%nprocshared=4
# opt freq B3LYP/6-31G(d) empiricaldispersion=gd3bj scf=xqc

CID_58298963_JID_7430_neutraal

0 1
C          0.96577        0.03922       -0.08538
C          0.12107       -1.00652        0.58599
C         -1.21922       -0.94899        0.53505
O          0.87921       -1.95447        1.22633
C          0.31840       -2.82699        2.20704
C          0.69129       -2.35305        3.61508
C          0.03806       -1.03098        4.03305
C         -1.45539       -1.15029        4.35516
C         -1.76935       -1.72730        5.74282
C         -1.26845       -0.90110        6.92759
C         -1.94221        0.44669        7.01780
O         -2.93343        0.66619        7.69734
O         -1.30344        1.33874        6.21678
C         -1.80157        2.69076        6.05229
C         -3.23913        2.70741        5.51870
C         -1.66555        3.48079        7.35631
C         -0.88311        3.31533        4.99081
H          0.36327        0.81043       -0.57641
H          1.60399       -0.42345       -0.84523
H          1.60769        0.53396        0.65096
H         -1.87135       -1.68136        0.99028
H         -1.71774       -0.14450        0.00190
H         -0.75403       -2.99807        2.09413
H          0.79143       -3.80296        2.04591
H          0.44958       -3.13794        4.33977
H          1.77870       -2.20894        3.64876
H          0.58102       -0.62960        4.89437
H          0.17075       -0.28658        3.24143
H         -1.91501       -0.16031        4.26343
H         -1.95374       -1.77094        3.60264
H         -2.85871       -1.83342        5.82428
H         -1.35361       -2.73858        5.81848
H         -1.49057       -1.43468        7.86014
H         -0.18222       -0.76831        6.92056
H         -3.95869        2.36322        6.26748
H         -3.54125        3.71727        5.22051
H         -3.34186        2.04337        4.65323
H         -0.64384        3.41254        7.74672
H         -1.91197        4.53785        7.20978
H         -2.32498        3.09065        8.13757
H          0.16373        3.28851        5.31479
H         -0.93034        2.74731        4.05390
H         -1.15379        4.35494        4.77858

--Link1--
%chk=JID_7430.chk
%mem=8GB
%nprocshared=4
# B3LYP/6-311++G(d,p) empiricaldispersion=gd3bj scf=xqc pop=npa geom=check

CID_58298963_JID_7430_Energie_neutraal

0 1

--Link1--
%chk=JID_7430.chk
%mem=8GB
%nprocshared=4
# B3LYP/6-311++G(d,p) empiricaldispersion=gd3bj scf=xqc pop=npa geom=check

CID_58298963_JID_7430_Energie_kation

1 2

--Link1--
%chk=JID_7430.chk
%mem=8GB
%nprocshared=4
# B3LYP/6-311++G(d,p) empiricaldispersion=gd3bj scf=xqc pop=npa geom=check

CID_58298963_JID_7430_Energie_anion

-1 2
