%chk=JID_2968.chk
%mem=8GB
%nprocshared=4
# opt freq B3LYP/6-31G(d) empiricaldispersion=gd3bj scf=xqc

CID_145537368_JID_2968_neutraal

0 1
C          1.01711       -0.08099       -0.05611
C          0.59260        1.27957       -0.61871
C          1.21669        1.51948       -1.99702
C         -0.92395        1.45507       -0.62852
C         -1.49471        2.51317       -0.02098
C         -2.97623        2.81755        0.05651
C         -3.76469        1.57575        0.47763
N         -3.75771        0.37722       -0.02554
C         -2.94870        0.05535       -1.07601
C         -1.71123        0.48170       -1.36305
C         -3.19701        3.87446        1.16039
C         -3.52648        3.38338       -1.25928
H          0.71088       -0.90668       -0.70753
H          0.58064       -0.24923        0.93460
H          2.10669       -0.12921        0.04771
H          1.02478        2.03558        0.05202
H          0.93730        0.74269       -2.71635
H          0.90782        2.48812       -2.40510
H          2.30999        1.52239       -1.92551
H         -0.83794        3.23195        0.46747
H         -4.47142        1.71816        1.31503
H         -3.37606       -0.70457       -1.72937
H         -1.23493        0.04914       -2.24011
H         -2.66559        4.80724        0.93693
H         -4.26060        4.11887        1.27017
H         -2.84667        3.51428        2.13571
H         -3.40998        2.68857       -2.09705
H         -4.59852        3.59789       -1.17521
H         -3.01834        4.31505       -1.53423

--Link1--
%chk=JID_2968.chk
%mem=8GB
%nprocshared=4
# B3LYP/6-311++G(d,p) empiricaldispersion=gd3bj scf=xqc pop=npa geom=check

CID_145537368_JID_2968_Energie_neutraal

0 1

--Link1--
%chk=JID_2968.chk
%mem=8GB
%nprocshared=4
# B3LYP/6-311++G(d,p) empiricaldispersion=gd3bj scf=xqc pop=npa geom=check

CID_145537368_JID_2968_Energie_kation

1 2

--Link1--
%chk=JID_2968.chk
%mem=8GB
%nprocshared=4
# B3LYP/6-311++G(d,p) empiricaldispersion=gd3bj scf=xqc pop=npa geom=check

CID_145537368_JID_2968_Energie_anion

-1 2
