%chk=JID_9772.chk
%mem=8GB
%nprocshared=4
# opt freq B3LYP/6-31G(d) empiricaldispersion=gd3bj scf=xqc

CID_61063107_JID_9772_neutraal

0 1
C          1.04787       -0.06900        0.05429
C          0.21586       -0.02175       -1.22747
C          0.43623       -1.30687       -2.03071
C         -1.28831        0.15994       -0.94118
C         -1.68212        1.50166       -0.31641
N         -1.45339        2.60870       -1.22805
C         -2.24650        3.68061       -1.50774
O         -1.87114        4.46835       -2.38145
C         -3.59463        3.87454       -0.80341
N         -4.71959        3.63598       -1.73424
C         -5.14605        2.29068       -1.74464
C         -4.58492        1.39240       -2.66549
C         -4.90577        0.03423       -2.63083
C         -5.78389       -0.44720       -1.66646
C         -6.34951        0.43245       -0.74547
C         -6.04805        1.80676       -0.77758
C         -6.70603        2.72582        0.22805
O         -8.10864        2.46356        0.36294
C         -8.86216        3.04027       -0.69864
H          0.70251       -0.86451        0.72322
H          0.99725        0.87922        0.59748
H          2.10275       -0.25569       -0.17457
H          0.57641        0.81188       -1.84086
H          0.09879       -2.18759       -1.47395
H         -0.11339       -1.27201       -2.97747
H          1.49704       -1.44053       -2.26803
H         -1.84217        0.04052       -1.88079
H         -1.62603       -0.64430       -0.27509
H         -2.73725        1.45587       -0.04055
H         -1.11486        1.70580        0.59586
H         -0.57466        2.64055       -1.73087
H         -3.67685        3.29895        0.12207
H         -3.63267        4.92753       -0.49889
H         -4.42431        3.92066       -2.67189
H         -3.87813        1.74412       -3.41341
H         -4.46266       -0.64691       -3.35229
H         -6.03604       -1.50380       -1.63348
H         -7.04771        0.05127       -0.00182
H         -6.24627        2.53968        1.20540
H         -6.55784        3.78750        0.00324
H         -8.73589        4.12724       -0.71345
H         -8.57322        2.61417       -1.66393
H         -9.91881        2.81758       -0.52701

--Link1--
%chk=JID_9772.chk
%mem=8GB
%nprocshared=4
# B3LYP/6-311++G(d,p) empiricaldispersion=gd3bj scf=xqc pop=npa geom=check

CID_61063107_JID_9772_Energie_neutraal

0 1

--Link1--
%chk=JID_9772.chk
%mem=8GB
%nprocshared=4
# B3LYP/6-311++G(d,p) empiricaldispersion=gd3bj scf=xqc pop=npa geom=check

CID_61063107_JID_9772_Energie_kation

1 2

--Link1--
%chk=JID_9772.chk
%mem=8GB
%nprocshared=4
# B3LYP/6-311++G(d,p) empiricaldispersion=gd3bj scf=xqc pop=npa geom=check

CID_61063107_JID_9772_Energie_anion

-1 2
