%chk=JID_9706.chk
%mem=8GB
%nprocshared=4
# opt freq B3LYP/6-31G(d) empiricaldispersion=gd3bj scf=xqc

CID_122010042_JID_9706_neutraal

0 1
C          1.48800        0.82700       -0.65100
C          0.60447        0.91035        0.58651
C         -0.08765       -0.45895        0.67887
C          0.75943       -1.40701       -0.20790
C          1.99707       -0.60071       -0.60447
N          1.14034       -2.63945        0.47655
C          0.26335       -3.66075        0.69322
O          0.19292       -4.13800        1.82254
N         -0.51118       -4.06980       -0.37033
C         -1.63217       -4.95902       -0.08991
C         -1.22426       -6.41693       -0.27262
C         -0.65098       -6.64625       -1.67319
C          0.47529       -5.65818       -2.02096
C          0.05134       -4.21203       -1.72007
C          1.80962       -5.94784       -1.36183
O          2.77916       -5.20413       -1.36391
O          1.91058       -7.16866       -0.80876
C         -1.47231       -0.38428        0.18163
N         -2.55774       -0.31114       -0.22211
H          0.89462        0.99446       -1.55746
H          2.30005        1.55928       -0.63031
H         -0.08724        1.75792        0.53755
H          1.24045        1.05340        1.46954
H         -0.10641       -0.78647        1.72545
H          0.19884       -1.65237       -1.11596
H          2.41009       -0.92751       -1.56388
H          2.79034       -0.69327        0.14810
H          1.69942       -2.50881        1.31173
H         -2.44159       -4.69842       -0.78211
H         -2.00582       -4.79370        0.92662
H         -2.09247       -7.06709       -0.11841
H         -0.47754       -6.69193        0.48138
H         -0.31399       -7.68452       -1.76928
H         -1.46088       -6.51846       -2.40366
H          0.67259       -5.74866       -3.09755
H          0.90205       -3.54200       -1.86873
H         -0.73323       -3.90373       -2.42180
H          2.81468       -7.18561       -0.43012

--Link1--
%chk=JID_9706.chk
%mem=8GB
%nprocshared=4
# B3LYP/6-311++G(d,p) empiricaldispersion=gd3bj scf=xqc pop=npa geom=check

CID_122010042_JID_9706_Energie_neutraal

0 1

--Link1--
%chk=JID_9706.chk
%mem=8GB
%nprocshared=4
# B3LYP/6-311++G(d,p) empiricaldispersion=gd3bj scf=xqc pop=npa geom=check

CID_122010042_JID_9706_Energie_kation

1 2

--Link1--
%chk=JID_9706.chk
%mem=8GB
%nprocshared=4
# B3LYP/6-311++G(d,p) empiricaldispersion=gd3bj scf=xqc pop=npa geom=check

CID_122010042_JID_9706_Energie_anion

-1 2
