%chk=JID_2975.chk
%mem=8GB
%nprocshared=4
# opt freq B3LYP/6-31G(d) empiricaldispersion=gd3bj scf=xqc

CID_137083811_JID_2975_neutraal

0 1
C          0.95159       -0.01137       -0.08676
N          0.37240       -0.25826       -1.39943
C          0.28471        0.73709       -2.21299
C          0.75754        2.13921       -1.95778
C          0.30731        2.83351       -3.23697
N          0.12049        1.75186       -4.24151
N         -0.22283        0.62038       -3.48173
C         -0.95760        2.05870       -5.17884
C          1.33898        3.85615       -3.68993
O          1.27657        5.04321       -3.38410
O          2.35748        3.30024       -4.40317
C          3.35539        4.22883       -4.82664
H          0.96558       -0.94940        0.47714
H          0.35560        0.70526        0.48734
H          1.98595        0.33927       -0.16120
H          0.26724        2.55926       -1.07531
H          1.84361        2.14317       -1.82149
H         -0.64063        3.35771       -3.05336
H         -0.13757       -0.30936       -3.88971
H         -1.92163        2.20552       -4.67753
H         -0.72246        2.96407       -5.74882
H         -1.07188        1.24538       -5.90433
H          2.91852        4.98763       -5.48340
H          3.83763        4.69475       -3.96167
H          4.11345        3.67827       -5.39049

--Link1--
%chk=JID_2975.chk
%mem=8GB
%nprocshared=4
# B3LYP/6-311++G(d,p) empiricaldispersion=gd3bj scf=xqc pop=npa geom=check

CID_137083811_JID_2975_Energie_neutraal

0 1

--Link1--
%chk=JID_2975.chk
%mem=8GB
%nprocshared=4
# B3LYP/6-311++G(d,p) empiricaldispersion=gd3bj scf=xqc pop=npa geom=check

CID_137083811_JID_2975_Energie_kation

1 2

--Link1--
%chk=JID_2975.chk
%mem=8GB
%nprocshared=4
# B3LYP/6-311++G(d,p) empiricaldispersion=gd3bj scf=xqc pop=npa geom=check

CID_137083811_JID_2975_Energie_anion

-1 2
