%chk=JID_2364.chk
%mem=8GB
%nprocshared=4
# opt freq B3LYP/6-31G(d) empiricaldispersion=gd3bj scf=xqc

CID_61381536_JID_2364_neutraal

0 1
C          0.93301       -0.02541       -0.06977
S          0.06437        0.41629       -1.55628
O         -0.16342       -0.81808       -2.28469
O         -1.04610        1.26972       -1.18641
C          1.24805        1.36973       -2.49671
C          1.21632        2.87767       -2.26834
C          1.60755        3.36774       -0.87146
C          3.02571        2.99994       -0.41946
C          3.91425        4.12374       -0.93484
C          3.10037        5.38666       -0.69672
C          1.69035        4.88542       -0.87238
O          0.72221        5.62349       -1.00034
H          0.29471       -0.70152        0.50365
H          1.13734        0.86814        0.51791
H          1.85998       -0.53438       -0.33988
H          2.23815        0.93636       -2.33426
H          0.99573        1.18101       -3.54757
H          1.87733        3.34193       -3.01246
H          0.21195        3.25424       -2.50267
H          0.87629        3.05703       -0.11982
H          3.36409        2.02104       -0.76636
H          3.06429        2.98518        0.67767
H          4.10569        3.99163       -2.00650
H          4.88023        4.15625       -0.42239
H          3.33861        6.16687       -1.42259
H          3.22168        5.75497        0.32588

--Link1--
%chk=JID_2364.chk
%mem=8GB
%nprocshared=4
# B3LYP/6-311++G(d,p) empiricaldispersion=gd3bj scf=xqc pop=npa geom=check

CID_61381536_JID_2364_Energie_neutraal

0 1

--Link1--
%chk=JID_2364.chk
%mem=8GB
%nprocshared=4
# B3LYP/6-311++G(d,p) empiricaldispersion=gd3bj scf=xqc pop=npa geom=check

CID_61381536_JID_2364_Energie_kation

1 2

--Link1--
%chk=JID_2364.chk
%mem=8GB
%nprocshared=4
# B3LYP/6-311++G(d,p) empiricaldispersion=gd3bj scf=xqc pop=npa geom=check

CID_61381536_JID_2364_Energie_anion

-1 2
