%chk=JID_7540.chk
%mem=8GB
%nprocshared=4
# opt freq B3LYP/6-31G(d) empiricaldispersion=gd3bj scf=xqc

CID_64337707_JID_7540_neutraal

0 1
C         -2.40700        1.57700       -0.02700
N         -1.49092        0.46643        0.04126
C         -0.11888        0.55529        0.10717
C          0.78189        1.62870        0.11652
C          2.14538        1.31791        0.18576
C          2.58500       -0.00511        0.24694
C          1.66862       -1.06296        0.23783
C          0.29846       -0.77093        0.16245
N         -0.77183       -1.62653        0.12225
C         -1.83715       -0.86831        0.02037
N         -3.11606       -1.27286       -0.11210
C         -3.44520       -2.69017       -0.00770
C         -4.13304       -3.11041        1.26322
C         -3.67418       -2.88842        2.55024
S         -4.76904       -3.54475        3.69305
C         -5.76363       -4.07774        2.40329
N         -5.34766       -3.78608        1.19085
H         -1.88253        2.51524        0.16380
H         -2.85002        1.59695       -1.02598
H         -3.18023        1.44266        0.73409
H          0.45206        2.66024        0.06495
H          2.87634        2.12409        0.18924
H          3.64960       -0.22002        0.29799
H          2.00110       -2.09413        0.27894
H         -3.90862       -0.65328       -0.01135
H         -4.11339       -2.92422       -0.84618
H         -2.56559       -3.33047       -0.15247
H         -2.76699       -2.38433        2.85433
H         -6.68227       -4.62081        2.58348

--Link1--
%chk=JID_7540.chk
%mem=8GB
%nprocshared=4
# B3LYP/6-311++G(d,p) empiricaldispersion=gd3bj scf=xqc pop=npa geom=check

CID_64337707_JID_7540_Energie_neutraal

0 1

--Link1--
%chk=JID_7540.chk
%mem=8GB
%nprocshared=4
# B3LYP/6-311++G(d,p) empiricaldispersion=gd3bj scf=xqc pop=npa geom=check

CID_64337707_JID_7540_Energie_kation

1 2

--Link1--
%chk=JID_7540.chk
%mem=8GB
%nprocshared=4
# B3LYP/6-311++G(d,p) empiricaldispersion=gd3bj scf=xqc pop=npa geom=check

CID_64337707_JID_7540_Energie_anion

-1 2
