%chk=JID_426.chk
%mem=8GB
%nprocshared=4
# opt freq B3LYP/6-31G(d) empiricaldispersion=gd3bj scf=xqc

CID_131101663_JID_426_neutraal

0 1
C          1.29500       -0.19400       -0.08500
C          0.22167       -1.17577        0.38609
C         -1.09146       -0.73913       -0.28879
C         -0.80563        0.70140       -0.61123
C          0.49422        0.99389       -0.50062
C         -1.41001       -1.53553       -1.55707
C         -1.89825       -2.94007       -1.25001
O         -2.06574       -3.36855       -0.10995
N         -2.21275       -3.72189       -2.33015
O         -1.67380       -3.37831       -3.58466
H          1.99192        0.04563        0.72324
H          1.85835       -0.58924       -0.93645
H          0.50164       -2.21273        0.17368
H          0.11189       -1.09319        1.47611
H         -1.91793       -0.80592        0.42844
H         -1.56791        1.40645       -0.91535
H          0.92732        1.96299       -0.70751
H         -2.20193       -1.03024       -2.12446
H         -0.52175       -1.60070       -2.19719
H         -2.31851       -4.71370       -2.13474
H         -2.45166       -3.01423       -4.04872

--Link1--
%chk=JID_426.chk
%mem=8GB
%nprocshared=4
# B3LYP/6-311++G(d,p) empiricaldispersion=gd3bj scf=xqc pop=npa geom=check

CID_131101663_JID_426_Energie_neutraal

0 1

--Link1--
%chk=JID_426.chk
%mem=8GB
%nprocshared=4
# B3LYP/6-311++G(d,p) empiricaldispersion=gd3bj scf=xqc pop=npa geom=check

CID_131101663_JID_426_Energie_kation

1 2

--Link1--
%chk=JID_426.chk
%mem=8GB
%nprocshared=4
# B3LYP/6-311++G(d,p) empiricaldispersion=gd3bj scf=xqc pop=npa geom=check

CID_131101663_JID_426_Energie_anion

-1 2
