%chk=JID_8554.chk
%mem=8GB
%nprocshared=4
# opt freq B3LYP/6-31G(d) empiricaldispersion=gd3bj scf=xqc

CID_116220971_JID_8554_neutraal

0 1
C          1.02429       -0.03531       -0.09035
C          1.18302       -1.51251        0.25060
C          1.77105       -1.74055        1.64573
N          0.82400       -1.43054        2.70231
C         -0.13570       -2.38452        2.99488
N         -1.30448       -1.91199        3.43822
C         -2.24019       -2.82452        3.74749
C         -2.04261       -4.17869        3.63957
C         -0.80506       -4.58144        3.18932
N          0.13583       -3.68819        2.84990
N         -0.56723       -5.95138        3.02020
C          0.76699       -6.34113        2.54401
C          1.88362       -6.19893        3.60546
C          1.68290       -7.04803        4.86833
S          1.59678       -8.85099        4.59940
C          3.24800       -9.10054        3.87025
C          3.46841       -8.30197        2.59110
S          3.54939       -6.50057        2.86036
H          0.31728        0.45689        0.58403
H          0.64685        0.07630       -1.11180
H          1.98412        0.48697       -0.02565
H          0.21527       -2.01668        0.14747
H          1.85706       -1.96157       -0.48860
H          2.14497       -2.76841        1.72972
H          2.64875       -1.09669        1.77677
H          0.35099       -0.53729        2.64274
H         -3.18640       -2.42082        4.09414
H         -2.82499       -4.88343        3.88389
H         -0.89175       -6.49398        3.81435
H          0.68722       -7.38061        2.20812
H          1.01632       -5.76548        1.64244
H          1.92416       -5.15582        3.93638
H          2.47993       -6.85106        5.59533
H          0.74994       -6.75779        5.36328
H          3.33865      -10.16786        3.64169
H          4.01220       -8.87137        4.62125
H          2.70816       -8.52923        1.83667
H          4.43137       -8.59410        2.15801

--Link1--
%chk=JID_8554.chk
%mem=8GB
%nprocshared=4
# B3LYP/6-311++G(d,p) empiricaldispersion=gd3bj scf=xqc pop=npa geom=check

CID_116220971_JID_8554_Energie_neutraal

0 1

--Link1--
%chk=JID_8554.chk
%mem=8GB
%nprocshared=4
# B3LYP/6-311++G(d,p) empiricaldispersion=gd3bj scf=xqc pop=npa geom=check

CID_116220971_JID_8554_Energie_kation

1 2

--Link1--
%chk=JID_8554.chk
%mem=8GB
%nprocshared=4
# B3LYP/6-311++G(d,p) empiricaldispersion=gd3bj scf=xqc pop=npa geom=check

CID_116220971_JID_8554_Energie_anion

-1 2
