%chk=JID_3277.chk
%mem=8GB
%nprocshared=4
# opt freq B3LYP/6-31G(d) empiricaldispersion=gd3bj scf=xqc

CID_106415961_JID_3277_neutraal

0 1
C         -2.18800       -0.07600        0.00700
C         -0.72609        0.00598       -0.14840
N          0.06674        1.05260       -0.11113
C          1.29876        0.48270       -0.31523
N          1.28626       -0.84667       -0.48234
O         -0.06761       -1.16862       -0.36811
C          2.54623        1.28457       -0.34719
C          3.22510        1.38395        1.02536
N          3.95034        0.15282        1.37370
C          4.55881        0.23049        2.71700
C          3.53177        0.05004        3.82683
O          2.38440       -0.35221        3.71442
O          4.02917        0.35746        5.04247
H         -2.64372       -0.53089       -0.87742
H         -2.44708       -0.67992        0.88158
H         -2.61911        0.92075        0.13937
H          3.24221        0.87938       -1.09221
H          2.29527        2.29845       -0.68390
H          3.94732        2.20835        0.98455
H          2.48035        1.63363        1.79053
H          3.28972       -0.63311        1.36483
H          5.28668       -0.58196        2.81115
H          5.08345        1.18288        2.84769
H          3.28336        0.17801        5.65297

--Link1--
%chk=JID_3277.chk
%mem=8GB
%nprocshared=4
# B3LYP/6-311++G(d,p) empiricaldispersion=gd3bj scf=xqc pop=npa geom=check

CID_106415961_JID_3277_Energie_neutraal

0 1

--Link1--
%chk=JID_3277.chk
%mem=8GB
%nprocshared=4
# B3LYP/6-311++G(d,p) empiricaldispersion=gd3bj scf=xqc pop=npa geom=check

CID_106415961_JID_3277_Energie_kation

1 2

--Link1--
%chk=JID_3277.chk
%mem=8GB
%nprocshared=4
# B3LYP/6-311++G(d,p) empiricaldispersion=gd3bj scf=xqc pop=npa geom=check

CID_106415961_JID_3277_Energie_anion

-1 2
