%chk=JID_3835.chk
%mem=8GB
%nprocshared=4
# opt freq B3LYP/6-31G(d) empiricaldispersion=gd3bj scf=xqc

CID_20786181_JID_3835_neutraal

0 1
C          1.07880       -0.00622       -0.06125
C          0.90185        0.10858       -1.58462
C          1.46582       -1.14326       -2.27239
C         -0.60839        0.19179       -1.88582
N          1.48659        1.35461       -2.11245
C          2.93574        1.53847       -1.94252
C          3.76163        1.17665       -3.19578
N          3.15368        1.75773       -4.38995
C          3.69575        1.44720       -5.58883
N          4.49702        0.43065       -5.81487
C          4.87050        0.40231       -7.14276
C          4.35137        1.40739       -7.92658
S          3.35974        2.42382       -6.96988
H          0.49318       -0.84318        0.33746
H          0.73793        0.90256        0.44835
H          2.11995       -0.18339        0.22611
H          0.91311       -2.03963       -1.96736
H          1.39045       -1.06857       -3.36338
H          2.51607       -1.31085       -2.01291
H         -1.06411        1.06727       -1.40738
H         -0.80117        0.26147       -2.96311
H         -1.13557       -0.69530       -1.51549
H          1.29702        1.40288       -3.11929
H          3.08343        2.60922       -1.75326
H          3.34213        1.02370       -1.06780
H          4.78197        1.55890       -3.07132
H          3.82051        0.08727       -3.29260
H          2.82372        2.71155       -4.28069
H          5.53148       -0.38263       -7.48901
H          4.50191        1.58664       -8.98079

--Link1--
%chk=JID_3835.chk
%mem=8GB
%nprocshared=4
# B3LYP/6-311++G(d,p) empiricaldispersion=gd3bj scf=xqc pop=npa geom=check

CID_20786181_JID_3835_Energie_neutraal

0 1

--Link1--
%chk=JID_3835.chk
%mem=8GB
%nprocshared=4
# B3LYP/6-311++G(d,p) empiricaldispersion=gd3bj scf=xqc pop=npa geom=check

CID_20786181_JID_3835_Energie_kation

1 2

--Link1--
%chk=JID_3835.chk
%mem=8GB
%nprocshared=4
# B3LYP/6-311++G(d,p) empiricaldispersion=gd3bj scf=xqc pop=npa geom=check

CID_20786181_JID_3835_Energie_anion

-1 2
