%chk=JID_5486.chk
%mem=8GB
%nprocshared=4
# opt freq B3LYP/6-31G(d) empiricaldispersion=gd3bj scf=xqc

CID_140315904_JID_5486_neutraal

0 1
C          0.94296       -0.03931        0.07212
C          0.51765       -0.80597        1.32388
C          0.97140       -0.07478        2.58688
C         -0.95718       -1.03625        1.35214
C         -1.73211       -2.15584        1.57055
C         -3.08019       -1.72932        1.50058
C         -3.04604       -0.37592        1.24248
O         -1.75620        0.04777        1.14314
C         -4.09778        0.65392        1.04945
C         -4.34709        1.49524        2.30469
C         -3.19435        2.41604        2.72846
C         -2.72140        3.41927        1.67105
C         -3.80131        4.36163        1.12680
C         -4.48722        5.22802        2.17822
O         -3.55650        6.08283        2.82562
H          0.51341        0.96872        0.04793
H          0.61904       -0.56046       -0.83572
H          2.03295        0.06039        0.03139
H          1.01607       -1.78384        1.30195
H          0.51177        0.91719        2.66506
H          0.69716       -0.63829        3.48590
H          2.05887        0.05496        2.59119
H         -1.36744       -3.15492        1.76353
H         -3.96838       -2.33278        1.62383
H         -3.84586        1.29010        0.19434
H         -5.03460        0.14801        0.78348
H         -5.24593        2.10195        2.14234
H         -4.58006        0.83045        3.14682
H         -3.50102        2.95971        3.63017
H         -2.33594        1.80701        3.03614
H         -1.90505        4.01360        2.09945
H         -2.27591        2.87857        0.82770
H         -3.32075        5.02093        0.39295
H         -4.55942        3.78652        0.58393
H         -5.23612        5.86367        1.69504
H         -5.00472        4.62898        2.93331
H         -2.96587        5.52631        3.36067

--Link1--
%chk=JID_5486.chk
%mem=8GB
%nprocshared=4
# B3LYP/6-311++G(d,p) empiricaldispersion=gd3bj scf=xqc pop=npa geom=check

CID_140315904_JID_5486_Energie_neutraal

0 1

--Link1--
%chk=JID_5486.chk
%mem=8GB
%nprocshared=4
# B3LYP/6-311++G(d,p) empiricaldispersion=gd3bj scf=xqc pop=npa geom=check

CID_140315904_JID_5486_Energie_kation

1 2

--Link1--
%chk=JID_5486.chk
%mem=8GB
%nprocshared=4
# B3LYP/6-311++G(d,p) empiricaldispersion=gd3bj scf=xqc pop=npa geom=check

CID_140315904_JID_5486_Energie_anion

-1 2
