%chk=JID_9740.chk
%mem=8GB
%nprocshared=4
# opt freq B3LYP/6-31G(d) empiricaldispersion=gd3bj scf=xqc

CID_14851193_JID_9740_neutraal

0 1
C          1.01096        0.08061       -0.05816
C          0.54597        1.37657       -0.71182
C          0.34387        1.35823       -2.24290
C          0.56087        2.77313       -2.73693
O         -0.11946        3.72872       -2.39190
N          1.58536        2.74243       -3.67135
O          2.10627        1.43853       -3.79065
C          1.41148        0.58988       -2.98211
O          1.62655       -0.60955       -2.92220
C          2.35947        3.80630       -4.09786
O          2.16497        4.98019       -3.79239
C          3.50135        3.51811       -5.00625
C          4.71098        4.18870       -4.78499
C          5.79968        3.96262       -5.62826
C          5.67881        3.07928       -6.70084
C          4.46820        2.42833       -6.93983
C          3.37543        2.65152       -6.09966
C         -1.05886        0.92223       -2.72354
C         -1.57377       -0.40279       -2.18222
H          0.36652       -0.76653       -0.29934
H          1.01118        0.19662        1.03100
H          2.03499       -0.16620       -0.35489
H         -0.38881        1.69560       -0.23231
H          1.28469        2.14542       -0.44508
H          4.80612        4.89176       -3.95964
H          6.73928        4.48148       -5.45374
H          6.52705        2.90720       -7.35961
H          4.37456        1.75344       -7.78757
H          2.43318        2.15680       -6.31913
H         -1.79563        1.69393       -2.46359
H         -1.06528        0.86490       -3.82089
H         -1.74861       -0.35084       -1.10392
H         -2.53197       -0.64750       -2.65302
H         -0.88393       -1.22418       -2.39263

--Link1--
%chk=JID_9740.chk
%mem=8GB
%nprocshared=4
# B3LYP/6-311++G(d,p) empiricaldispersion=gd3bj scf=xqc pop=npa geom=check

CID_14851193_JID_9740_Energie_neutraal

0 1

--Link1--
%chk=JID_9740.chk
%mem=8GB
%nprocshared=4
# B3LYP/6-311++G(d,p) empiricaldispersion=gd3bj scf=xqc pop=npa geom=check

CID_14851193_JID_9740_Energie_kation

1 2

--Link1--
%chk=JID_9740.chk
%mem=8GB
%nprocshared=4
# B3LYP/6-311++G(d,p) empiricaldispersion=gd3bj scf=xqc pop=npa geom=check

CID_14851193_JID_9740_Energie_anion

-1 2
