%chk=JID_5027.chk
%mem=8GB
%nprocshared=4
# opt freq B3LYP/6-31G(d) empiricaldispersion=gd3bj scf=xqc

CID_63649404_JID_5027_neutraal

0 1
C          1.04808        0.06056       -0.06341
N         -0.17290       -0.03024       -0.84830
C         -1.29021        0.68291       -0.23111
C         -1.22489        2.21332       -0.33167
C         -1.17665        2.78757       -1.75526
C         -2.34164        2.35927       -2.64926
O         -3.57200        2.80245       -2.06685
C         -4.48050        1.81237       -1.81961
C         -4.80943        0.81451       -2.73516
C         -5.72271       -0.18217       -2.37889
C         -6.31834       -0.17636       -1.11391
C         -6.03212        0.86402       -0.22584
C         -5.12065        1.85960       -0.58222
S         -7.44647       -1.48263       -0.66994
C         -6.52159       -2.21007        0.71002
H          0.90253       -0.33465        0.94712
H          1.41828        1.08791        0.00261
H          1.82882       -0.54166       -0.53872
H         -0.00260        0.31348       -1.79069
H         -2.20981        0.32360       -0.70274
H         -1.37946        0.39442        0.82376
H         -2.09733        2.62676        0.18920
H         -0.35222        2.58258        0.22034
H         -1.18530        3.88148       -1.66820
H         -0.23076        2.51704       -2.23753
H         -2.24711        2.84949       -3.62476
H         -2.29260        1.27853       -2.82294
H         -4.36747        0.79755       -3.72668
H         -5.95886       -0.96646       -3.09427
H         -6.51359        0.91137        0.74726
H         -4.89432        2.66243        0.11421
H         -5.51676       -2.49864        0.38850
H         -6.44745       -1.50643        1.54347
H         -7.04404       -3.10443        1.05977

--Link1--
%chk=JID_5027.chk
%mem=8GB
%nprocshared=4
# B3LYP/6-311++G(d,p) empiricaldispersion=gd3bj scf=xqc pop=npa geom=check

CID_63649404_JID_5027_Energie_neutraal

0 1

--Link1--
%chk=JID_5027.chk
%mem=8GB
%nprocshared=4
# B3LYP/6-311++G(d,p) empiricaldispersion=gd3bj scf=xqc pop=npa geom=check

CID_63649404_JID_5027_Energie_kation

1 2

--Link1--
%chk=JID_5027.chk
%mem=8GB
%nprocshared=4
# B3LYP/6-311++G(d,p) empiricaldispersion=gd3bj scf=xqc pop=npa geom=check

CID_63649404_JID_5027_Energie_anion

-1 2
