%chk=JID_2051.chk
%mem=8GB
%nprocshared=4
# opt freq B3LYP/6-31G(d) empiricaldispersion=gd3bj scf=xqc

CID_146790909_JID_2051_neutraal

0 1
C          1.06629        0.01803        0.07266
C          0.57970       -0.86080        1.19637
C          0.21602       -0.31963        2.36998
C         -0.36806       -0.95531        3.52599
C         -0.42688       -2.24963        3.89175
C          0.12344       -3.43912        3.13987
C          1.11539       -3.19581        2.00869
C          0.56146       -2.33273        0.88284
C         -1.17947       -2.61496        5.16738
C         -0.29941       -3.10327        6.32724
C          0.77881       -2.12349        6.79466
N          0.21173       -0.90024        7.35325
H          1.04174        1.08149        0.33300
H          0.43806       -0.12016       -0.81351
H          2.09916       -0.23563       -0.18786
H          0.28837        0.76392        2.47684
H         -0.84239       -0.22469        4.18396
H         -0.72688       -4.01083        2.74521
H          0.62979       -4.10105        3.85228
H          2.04334       -2.76454        2.40641
H          1.38852       -4.17317        1.58994
H          1.19268       -2.51257        0.00259
H         -0.45160       -2.64253        0.59986
H         -1.78729       -1.76919        5.51363
H         -1.90511       -3.40239        4.92381
H         -0.95327       -3.34783        7.17484
H          0.18717       -4.04561        6.04879
H          1.37655       -2.60961        7.57382
H          1.46389       -1.87532        5.97726
H          0.97066       -0.30392        7.68209
H         -0.25018       -0.37436        6.61315

--Link1--
%chk=JID_2051.chk
%mem=8GB
%nprocshared=4
# B3LYP/6-311++G(d,p) empiricaldispersion=gd3bj scf=xqc pop=npa geom=check

CID_146790909_JID_2051_Energie_neutraal

0 1

--Link1--
%chk=JID_2051.chk
%mem=8GB
%nprocshared=4
# B3LYP/6-311++G(d,p) empiricaldispersion=gd3bj scf=xqc pop=npa geom=check

CID_146790909_JID_2051_Energie_kation

1 2

--Link1--
%chk=JID_2051.chk
%mem=8GB
%nprocshared=4
# B3LYP/6-311++G(d,p) empiricaldispersion=gd3bj scf=xqc pop=npa geom=check

CID_146790909_JID_2051_Energie_anion

-1 2
