%chk=JID_4278.chk
%mem=8GB
%nprocshared=4
# opt freq B3LYP/6-31G(d) empiricaldispersion=gd3bj scf=xqc

CID_61576893_JID_4278_neutraal

0 1
C          0.93161       -0.03194       -0.06560
C          0.91404       -0.29689       -1.59285
N          0.81436       -1.71844       -1.98347
C         -0.17134       -2.09905       -3.03130
C          0.17505       -1.76113       -4.50857
C          1.59354       -2.19524       -4.83999
N          2.77030       -2.55537       -5.11493
C          1.87426       -2.55543       -1.58041
O          2.85773       -2.09885       -0.99212
C          1.73095       -4.08052       -1.81587
C          0.69386       -4.67409       -0.86209
C          1.30945       -5.98611       -0.44266
C          2.77973       -5.65349       -0.45382
O          2.95662       -4.79614       -1.58169
H          0.05776       -0.49109        0.40748
H          0.90330        1.04586        0.12217
H          1.82681       -0.43222        0.41556
H          0.05683        0.23445       -2.02107
H          1.82176        0.11540       -2.04851
H         -0.35522       -3.17382       -2.96946
H         -1.12262       -1.62069       -2.76873
H         -0.53742       -2.24471       -5.18423
H          0.10684       -0.67781       -4.65827
H          1.47433       -4.27551       -2.85965
H          0.54914       -4.03141        0.01510
H         -0.28527       -4.80695       -1.33156
H          0.95620       -6.34635        0.52678
H          1.09214       -6.74993       -1.19863
H          3.07760       -5.10682        0.44762
H          3.41355       -6.53830       -0.55742

--Link1--
%chk=JID_4278.chk
%mem=8GB
%nprocshared=4
# B3LYP/6-311++G(d,p) empiricaldispersion=gd3bj scf=xqc pop=npa geom=check

CID_61576893_JID_4278_Energie_neutraal

0 1

--Link1--
%chk=JID_4278.chk
%mem=8GB
%nprocshared=4
# B3LYP/6-311++G(d,p) empiricaldispersion=gd3bj scf=xqc pop=npa geom=check

CID_61576893_JID_4278_Energie_kation

1 2

--Link1--
%chk=JID_4278.chk
%mem=8GB
%nprocshared=4
# B3LYP/6-311++G(d,p) empiricaldispersion=gd3bj scf=xqc pop=npa geom=check

CID_61576893_JID_4278_Energie_anion

-1 2
