%chk=JID_9166.chk
%mem=8GB
%nprocshared=4
# opt freq B3LYP/6-31G(d) empiricaldispersion=gd3bj scf=xqc

CID_115917615_JID_9166_neutraal

0 1
C          2.49200        0.00400       -0.01400
C          0.98786       -0.06015       -0.02812
C          0.27760       -1.24191        0.26374
C         -1.12522       -1.20966        0.24522
C         -1.84636       -0.06589       -0.12593
C         -1.11939        1.09697       -0.39082
C          0.27509        1.10413       -0.34619
N         -3.23618        0.00016       -0.14177
C         -4.08852       -1.18325       -0.23614
C         -4.69392       -1.43288        1.15112
C         -5.21523       -0.96456       -1.26419
C         -4.79365       -1.01993       -2.73706
C         -3.87084        0.05502       -3.37807
C         -3.39953       -1.04651       -4.35791
C         -3.77570       -2.07438       -3.26819
N          1.01335       -2.39262        0.62056
C          0.70804       -3.72015        0.67960
O          1.53784       -4.48769        1.16788
C         -0.57617       -4.25840        0.11263
H          2.86760       -0.13668        1.00497
H          2.91455       -0.76300       -0.67192
H          2.85798        0.97260       -0.37173
H         -1.68434       -2.06848        0.58626
H         -1.63724        2.02109       -0.63686
H          0.79998        2.03174       -0.56499
H         -3.61471        0.83727       -0.57541
H         -3.52572       -2.07657       -0.52346
H         -5.29944       -0.58020        1.48133
H         -5.33366       -2.32190        1.14490
H         -3.90840       -1.59041        1.90018
H         -5.96852       -1.75045       -1.11426
H         -5.72837       -0.01259       -1.07324
H         -5.73547       -1.07976       -3.31436
H         -4.38756        0.90376       -3.83689
H         -3.06115        0.43640       -2.74850
H         -2.34128       -1.01490       -4.63777
H         -4.00989       -1.12219       -5.26792
H         -2.93588       -2.30755       -2.60302
H         -4.21008       -3.01043       -3.63222
H          1.97901       -2.24592        0.88825
H         -1.36786       -4.20798        0.86381
H         -0.86093       -3.73478       -0.80309
H         -0.42650       -5.30958       -0.15632

--Link1--
%chk=JID_9166.chk
%mem=8GB
%nprocshared=4
# B3LYP/6-311++G(d,p) empiricaldispersion=gd3bj scf=xqc pop=npa geom=check

CID_115917615_JID_9166_Energie_neutraal

0 1

--Link1--
%chk=JID_9166.chk
%mem=8GB
%nprocshared=4
# B3LYP/6-311++G(d,p) empiricaldispersion=gd3bj scf=xqc pop=npa geom=check

CID_115917615_JID_9166_Energie_kation

1 2

--Link1--
%chk=JID_9166.chk
%mem=8GB
%nprocshared=4
# B3LYP/6-311++G(d,p) empiricaldispersion=gd3bj scf=xqc pop=npa geom=check

CID_115917615_JID_9166_Energie_anion

-1 2
