%chk=JID_6931.chk
%mem=8GB
%nprocshared=4
# opt freq B3LYP/6-31G(d) empiricaldispersion=gd3bj scf=xqc

CID_61626229_JID_6931_neutraal

0 1
C          0.91328       -0.04718        0.01592
C          0.04850       -0.87679       -0.91866
C          0.86208       -1.87361       -1.75676
N          0.40028       -3.27022       -1.69643
C          0.72211       -3.95249       -2.95495
C          0.82989       -4.09283       -0.52139
C          2.35707       -4.23525       -0.34230
C          3.15867       -5.32124       -0.69729
C          4.53547       -5.09194       -0.36721
C          4.73876       -3.88575        0.25752
S          3.28355       -3.03524        0.47654
C          2.67579       -6.58644       -1.33196
C          0.06937       -3.78033        0.83048
C         -1.47038       -3.88638        0.69974
C         -2.00812       -5.27761        0.38089
N          0.48594       -4.65088        1.95647
H          1.37661       -0.66498        0.78816
H          0.30298        0.70965        0.51930
H          1.70417        0.47116       -0.53551
H         -0.73988       -1.35991       -0.34057
H         -0.47393       -0.19200       -1.59966
H          0.73382       -1.52145       -2.79127
H          1.93741       -1.77896       -1.58902
H          1.79962       -3.98664       -3.14830
H          0.32791       -4.97466       -2.96282
H          0.24246       -3.44500       -3.80017
H          0.49203       -5.11205       -0.75365
H          5.33804       -5.79141       -0.56802
H          5.67304       -3.47496        0.61374
H          2.29460       -6.39396       -2.33845
H          3.48420       -7.32036       -1.41500
H          1.87974       -7.03865       -0.73167
H          0.30662       -2.75713        1.13777
H         -1.92908       -3.54752        1.63819
H         -1.83400       -3.20165       -0.07295
H         -1.69943       -6.01432        1.12811
H         -3.10301       -5.25650        0.36946
H         -1.67851       -5.62032       -0.60391
H          1.49546       -4.55855        2.08412
H          0.06070       -4.30736        2.81648

--Link1--
%chk=JID_6931.chk
%mem=8GB
%nprocshared=4
# B3LYP/6-311++G(d,p) empiricaldispersion=gd3bj scf=xqc pop=npa geom=check

CID_61626229_JID_6931_Energie_neutraal

0 1

--Link1--
%chk=JID_6931.chk
%mem=8GB
%nprocshared=4
# B3LYP/6-311++G(d,p) empiricaldispersion=gd3bj scf=xqc pop=npa geom=check

CID_61626229_JID_6931_Energie_kation

1 2

--Link1--
%chk=JID_6931.chk
%mem=8GB
%nprocshared=4
# B3LYP/6-311++G(d,p) empiricaldispersion=gd3bj scf=xqc pop=npa geom=check

CID_61626229_JID_6931_Energie_anion

-1 2
