%chk=JID_9307.chk
%mem=8GB
%nprocshared=4
# opt freq B3LYP/6-31G(d) empiricaldispersion=gd3bj scf=xqc

CID_20946484_JID_9307_neutraal

0 1
C          1.05286       -0.06232        0.05764
C          0.48625        1.28476       -0.24502
C         -0.70106        1.49363       -0.83613
S         -1.04664        3.18366       -1.03750
C          0.48424        3.60901       -0.29463
N          0.87748        4.82473       -0.12643
C          2.11580        4.97962        0.45652
C          2.87249        3.94923        0.86367
C          2.38719        2.56486        0.68235
O          3.08285        1.63840        1.08890
N          1.16142        2.46185        0.06363
C          2.60727        6.40506        0.60962
O          2.70087        7.04690       -0.67123
C          3.79569        6.71615       -1.40852
O          4.70664        6.00150       -1.00792
C          3.76307        7.39440       -2.78028
C          2.36417        7.28915       -3.40614
C          4.15821        8.86469       -2.60399
C          4.76891        6.69939       -3.71165
H          0.38037       -0.86078       -0.27511
H          1.20007       -0.19025        1.13468
H          2.00820       -0.20820       -0.45636
H         -1.38687        0.72241       -1.16116
H          3.85287        4.06867        1.30764
H          1.88057        6.97299        1.20177
H          3.56325        6.47384        1.14355
H          1.61783        7.84579       -2.82804
H          2.35419        7.69241       -4.42498
H          2.03053        6.24599       -3.45105
H          5.14995        8.95484       -2.14579
H          4.18184        9.38799       -3.56621
H          3.45229        9.39233       -1.95251
H          5.79007        6.76539       -3.31864
H          4.53120        5.63523       -3.82537
H          4.76742        7.15327       -4.70898

--Link1--
%chk=JID_9307.chk
%mem=8GB
%nprocshared=4
# B3LYP/6-311++G(d,p) empiricaldispersion=gd3bj scf=xqc pop=npa geom=check

CID_20946484_JID_9307_Energie_neutraal

0 1

--Link1--
%chk=JID_9307.chk
%mem=8GB
%nprocshared=4
# B3LYP/6-311++G(d,p) empiricaldispersion=gd3bj scf=xqc pop=npa geom=check

CID_20946484_JID_9307_Energie_kation

1 2

--Link1--
%chk=JID_9307.chk
%mem=8GB
%nprocshared=4
# B3LYP/6-311++G(d,p) empiricaldispersion=gd3bj scf=xqc pop=npa geom=check

CID_20946484_JID_9307_Energie_anion

-1 2
