%chk=JID_7329.chk
%mem=8GB
%nprocshared=4
# opt freq B3LYP/6-31G(d) empiricaldispersion=gd3bj scf=xqc

CID_104000620_JID_7329_neutraal

0 1
C          1.13300        1.27300        0.29400
C         -0.22800        1.36562       -0.38312
S         -1.38196        0.11651        0.24861
C         -0.37794       -1.36672       -0.03651
C          0.99015       -1.25927        0.62369
C          1.83749       -0.08375        0.12792
N          2.27315       -0.30784       -1.25815
C          3.34491        0.36042       -1.77290
O          3.16442        1.12766       -2.71516
N          4.56942        0.12865       -1.21191
C          4.93566       -1.11795       -0.57406
S          6.64174       -0.92114        0.00751
C          6.83008        0.74530       -0.69709
C          5.72348        0.86311       -1.73647
C          6.25135        0.38069       -3.09394
O          7.17291        0.89492       -3.71272
O          5.65141       -0.72246       -3.58578
H          1.01555        1.48231        1.36583
H          1.77338        2.07159       -0.10119
H         -0.66374        2.35242       -0.19564
H         -0.14164        1.25471       -1.46857
H         -0.28720       -1.53384       -1.11460
H         -0.91831       -2.22425        0.37745
H          1.53511       -2.19621        0.45112
H          0.86203       -1.17596        1.71111
H          2.73455       -0.02993        0.75326
H          1.51382       -0.20273       -1.92098
H          4.27964       -1.36044        0.26211
H          4.87804       -1.93034       -1.30514
H          7.83760        0.88559       -1.09840
H          6.67364        1.46562        0.11263
H          5.43495        1.91177       -1.88144
H          6.08066       -0.86154       -4.45541

--Link1--
%chk=JID_7329.chk
%mem=8GB
%nprocshared=4
# B3LYP/6-311++G(d,p) empiricaldispersion=gd3bj scf=xqc pop=npa geom=check

CID_104000620_JID_7329_Energie_neutraal

0 1

--Link1--
%chk=JID_7329.chk
%mem=8GB
%nprocshared=4
# B3LYP/6-311++G(d,p) empiricaldispersion=gd3bj scf=xqc pop=npa geom=check

CID_104000620_JID_7329_Energie_kation

1 2

--Link1--
%chk=JID_7329.chk
%mem=8GB
%nprocshared=4
# B3LYP/6-311++G(d,p) empiricaldispersion=gd3bj scf=xqc pop=npa geom=check

CID_104000620_JID_7329_Energie_anion

-1 2
