%chk=JID_2334.chk
%mem=8GB
%nprocshared=4
# opt freq B3LYP/6-31G(d) empiricaldispersion=gd3bj scf=xqc

CID_62041933_JID_2334_neutraal

0 1
C          1.03323       -0.08647        0.03766
C          0.46509       -1.07026       -0.97364
C          0.88566       -2.51861       -0.71529
C          0.33385       -3.13639        0.57605
C         -1.18973       -3.36244        0.60780
N         -1.68810       -4.31597       -0.36871
C         -1.62504       -5.67872       -0.21669
C         -2.21051       -6.19886       -1.34228
N         -2.65270       -5.19548       -2.15792
C         -2.36160       -4.06483       -1.54351
C         -2.71093       -2.71775       -2.05881
O          1.03190       -4.35914        0.83853
H          0.61142       -0.24604        1.03407
H          0.79331        0.93899       -0.26159
H          2.12233       -0.17321        0.10331
H         -0.62408       -0.97618       -0.98822
H          0.81884       -0.78259       -1.97104
H          0.59160       -3.13691       -1.57228
H          1.98241       -2.57240       -0.69386
H          0.58447       -2.48247        1.41769
H         -1.47209       -3.76810        1.58795
H         -1.73025       -2.42015        0.48711
H         -1.17900       -6.14742        0.65009
H         -2.34506       -7.24003       -1.60462
H         -1.84123       -2.25236       -2.52952
H         -3.49580       -2.79738       -2.81831
H         -3.08771       -2.06383       -1.26793
H          0.98618       -4.90998        0.03522

--Link1--
%chk=JID_2334.chk
%mem=8GB
%nprocshared=4
# B3LYP/6-311++G(d,p) empiricaldispersion=gd3bj scf=xqc pop=npa geom=check

CID_62041933_JID_2334_Energie_neutraal

0 1

--Link1--
%chk=JID_2334.chk
%mem=8GB
%nprocshared=4
# B3LYP/6-311++G(d,p) empiricaldispersion=gd3bj scf=xqc pop=npa geom=check

CID_62041933_JID_2334_Energie_kation

1 2

--Link1--
%chk=JID_2334.chk
%mem=8GB
%nprocshared=4
# B3LYP/6-311++G(d,p) empiricaldispersion=gd3bj scf=xqc pop=npa geom=check

CID_62041933_JID_2334_Energie_anion

-1 2
