%chk=JID_1328.chk
%mem=8GB
%nprocshared=4
# opt freq B3LYP/6-31G(d) empiricaldispersion=gd3bj scf=xqc

CID_76223131_JID_1328_neutraal

0 1
C         -1.85800        0.00300       -0.33600
C         -1.14114       -1.22323        0.22333
N          0.29721       -1.12092        0.00386
C          0.98524        0.05164       -0.02418
O          2.20904        0.07051        0.00922
N          0.24458        1.17996       -0.12643
C         -1.14106        1.22629        0.21174
N         -1.66944        2.46142       -0.37631
N         -1.03132        3.63129        0.22677
C         -1.70348       -2.50818       -0.39848
O         -1.08496       -3.65686        0.17665
H         -1.81583       -0.00798       -1.43396
H         -2.91510        0.00225       -0.04557
H         -1.26674       -1.26913        1.31272
H          0.88578       -1.90559        0.25408
H          0.74654        2.05315       -0.04090
H         -1.23093        1.25062        1.30574
H         -1.45731        2.41444       -1.37902
H         -1.36940        4.49033       -0.21999
H         -1.31186        3.72838        1.20855
H         -2.77906       -2.58286       -0.20863
H         -1.54580       -2.53772       -1.48251
H         -0.23574       -3.78033       -0.28214

--Link1--
%chk=JID_1328.chk
%mem=8GB
%nprocshared=4
# B3LYP/6-311++G(d,p) empiricaldispersion=gd3bj scf=xqc pop=npa geom=check

CID_76223131_JID_1328_Energie_neutraal

0 1

--Link1--
%chk=JID_1328.chk
%mem=8GB
%nprocshared=4
# B3LYP/6-311++G(d,p) empiricaldispersion=gd3bj scf=xqc pop=npa geom=check

CID_76223131_JID_1328_Energie_kation

1 2

--Link1--
%chk=JID_1328.chk
%mem=8GB
%nprocshared=4
# B3LYP/6-311++G(d,p) empiricaldispersion=gd3bj scf=xqc pop=npa geom=check

CID_76223131_JID_1328_Energie_anion

-1 2
