%chk=JID_7693.chk
%mem=8GB
%nprocshared=4
# opt freq B3LYP/6-31G(d) empiricaldispersion=gd3bj scf=xqc

CID_116570436_JID_7693_neutraal

0 1
C          1.02943       -0.07687       -0.05679
C          0.97294       -0.73114        1.31879
C          2.02155       -0.26297        2.36647
C          2.09000        1.26674        2.51183
C          3.29563        1.68186        1.69054
N          4.25641        0.60661        1.92144
C          3.46096       -0.63494        1.93085
C          1.72577       -1.04831        3.66037
O          1.82373       -2.27610        3.71656
C          1.35452       -0.35692        4.91191
C          2.21411       -0.49376        6.00873
C          1.91499        0.14884        7.21091
C          0.75806        0.92161        7.31998
C         -0.11230        1.03814        6.23454
C          0.17217        0.37588        5.03827
O         -0.69476        0.50655        3.98799
C         -1.78416       -0.40864        4.13501
H          0.81487        0.99402       -0.00307
H          0.27278       -0.52599       -0.70913
H          2.00076       -0.21665       -0.53819
H         -0.03549       -0.57322        1.71757
H          1.06508       -1.81670        1.17858
H          2.27204        1.57938        3.54552
H          1.17867        1.77345        2.17927
H          3.05935        1.75392        0.62436
H          3.69437        2.64992        2.00910
H          4.67136        0.73099        2.84591
H          3.94719       -1.35742        2.59598
H          3.48696       -1.07296        0.92766
H          3.11413       -1.09942        5.92715
H          2.58443        0.04803        8.06212
H          0.53083        1.42963        8.25443
H         -1.01134        1.64202        6.32452
H         -1.42786       -1.44151        4.21887
H         -2.40581       -0.14694        4.99792
H         -2.40421       -0.33596        3.23656

--Link1--
%chk=JID_7693.chk
%mem=8GB
%nprocshared=4
# B3LYP/6-311++G(d,p) empiricaldispersion=gd3bj scf=xqc pop=npa geom=check

CID_116570436_JID_7693_Energie_neutraal

0 1

--Link1--
%chk=JID_7693.chk
%mem=8GB
%nprocshared=4
# B3LYP/6-311++G(d,p) empiricaldispersion=gd3bj scf=xqc pop=npa geom=check

CID_116570436_JID_7693_Energie_kation

1 2

--Link1--
%chk=JID_7693.chk
%mem=8GB
%nprocshared=4
# B3LYP/6-311++G(d,p) empiricaldispersion=gd3bj scf=xqc pop=npa geom=check

CID_116570436_JID_7693_Energie_anion

-1 2
