%chk=JID_6519.chk
%mem=8GB
%nprocshared=4
# opt freq B3LYP/6-31G(d) empiricaldispersion=gd3bj scf=xqc

CID_147685755_JID_6519_neutraal

0 1
C          2.49200        0.00400       -0.01400
C          0.99516       -0.05695        0.04080
C          0.34211       -1.29783        0.06205
C         -1.05922       -1.38772        0.03784
C         -1.79727       -0.19155        0.03985
C         -1.15707        1.04853        0.02424
C          0.23420        1.11480        0.00887
C         -1.78132       -2.72425        0.01125
N         -1.87118       -3.42692       -1.26525
C         -0.60789       -3.89046       -1.84928
C         -0.31784       -2.97555       -3.02285
C         -1.70921       -2.68903       -3.56081
C         -2.60330       -2.69006       -2.31188
O         -1.82832       -1.55309       -4.40838
C         -1.34202       -0.31840       -3.90435
O         -1.19974       -3.60031        0.96158
H          2.93649       -0.81191        0.56560
H          2.83140       -0.07137       -1.05167
H          2.86297        0.94272        0.41073
H          0.93412       -2.20971        0.09949
H         -2.88507       -0.21905        0.04661
H         -1.74407        1.96313        0.01888
H          0.72139        2.08677       -0.01730
H         -2.80465       -2.56185        0.37318
H         -0.76942       -4.90987       -2.22285
H          0.23092       -3.95624       -1.15089
H          0.19941       -2.07361       -2.68841
H          0.31723       -3.45137       -3.77690
H         -2.00826       -3.54755       -4.17736
H         -2.90312       -1.68185       -2.01843
H         -3.53722       -3.22017       -2.53360
H         -1.78937       -0.06741       -2.94202
H         -0.25162       -0.32472       -3.83197
H         -1.61742        0.46517       -4.61629
H         -1.54828       -4.46548        0.69164

--Link1--
%chk=JID_6519.chk
%mem=8GB
%nprocshared=4
# B3LYP/6-311++G(d,p) empiricaldispersion=gd3bj scf=xqc pop=npa geom=check

CID_147685755_JID_6519_Energie_neutraal

0 1

--Link1--
%chk=JID_6519.chk
%mem=8GB
%nprocshared=4
# B3LYP/6-311++G(d,p) empiricaldispersion=gd3bj scf=xqc pop=npa geom=check

CID_147685755_JID_6519_Energie_kation

1 2

--Link1--
%chk=JID_6519.chk
%mem=8GB
%nprocshared=4
# B3LYP/6-311++G(d,p) empiricaldispersion=gd3bj scf=xqc pop=npa geom=check

CID_147685755_JID_6519_Energie_anion

-1 2
