%chk=JID_9588.chk
%mem=8GB
%nprocshared=4
# opt freq B3LYP/6-31G(d) empiricaldispersion=gd3bj scf=xqc

CID_137971864_JID_9588_neutraal

0 1
C          1.06782        0.02863        0.06768
C          1.08508        1.46756        0.55886
C          0.90459        2.50013       -0.56959
C         -0.47352        2.41208       -1.25719
O         -1.50448        2.60416       -0.27942
C         -2.79644        2.56658       -0.87297
N          1.05619        3.84445        0.05860
S          1.48816        5.14479       -0.93366
O          1.51462        4.68558       -2.30357
O          0.63626        6.22086       -0.47668
C          3.15110        5.50283       -0.43943
C          3.95644        4.47459        0.07284
C          5.23570        4.75788        0.55579
C          5.71365        6.06623        0.54122
C          4.91882        7.09194        0.02821
C          3.63989        6.81294       -0.47891
C          2.89955        7.95199       -1.05019
O          2.85608        9.07668       -0.59136
O          2.39273        7.64178       -2.25225
H          0.08399       -0.25195       -0.31925
H          1.30432       -0.65185        0.89209
H          1.80962       -0.12651       -0.72200
H          0.31599        1.59680        1.33031
H          2.04588        1.64811        1.05794
H          1.70162        2.34374       -1.30550
H         -0.57165        3.18331       -2.02848
H         -0.60168        1.43555       -1.73647
H         -2.90453        3.37135       -1.60637
H         -2.97105        1.59650       -1.34823
H         -3.54121        2.70891       -0.08552
H          0.23759        4.10293        0.62150
H          3.59935        3.44971        0.11051
H          5.85568        3.95772        0.95447
H          6.70636        6.28860        0.92606
H          5.30208        8.11123        0.01322
H          1.92495        8.45325       -2.54194

--Link1--
%chk=JID_9588.chk
%mem=8GB
%nprocshared=4
# B3LYP/6-311++G(d,p) empiricaldispersion=gd3bj scf=xqc pop=npa geom=check

CID_137971864_JID_9588_Energie_neutraal

0 1

--Link1--
%chk=JID_9588.chk
%mem=8GB
%nprocshared=4
# B3LYP/6-311++G(d,p) empiricaldispersion=gd3bj scf=xqc pop=npa geom=check

CID_137971864_JID_9588_Energie_kation

1 2

--Link1--
%chk=JID_9588.chk
%mem=8GB
%nprocshared=4
# B3LYP/6-311++G(d,p) empiricaldispersion=gd3bj scf=xqc pop=npa geom=check

CID_137971864_JID_9588_Energie_anion

-1 2
