%chk=JID_4270.chk
%mem=8GB
%nprocshared=4
# opt freq B3LYP/6-31G(d) empiricaldispersion=gd3bj scf=xqc

CID_54377191_JID_4270_neutraal

0 1
C          2.49200        0.00400       -0.01400
C          1.00520       -0.03269       -0.19898
C          0.32314       -1.25455       -0.12661
C         -1.06456       -1.31773       -0.28263
C         -1.77589       -0.14523       -0.53424
C         -1.10283        1.07593       -0.62850
C          0.28117        1.13265       -0.46469
O         -1.59528       -2.57323       -0.16459
C         -3.01165       -2.67746       -0.23731
C          0.75424        1.34902        3.60091
C         -0.00798        0.06336        3.70490
O         -1.17012       -0.02097        4.07719
O          0.79190       -0.98115        3.35604
C          0.14169       -2.25128        3.40989
H          2.77783       -0.55069        0.88582
H          2.98976       -0.43825       -0.88258
H          2.85443        1.03047        0.10443
H          0.87469       -2.17210        0.06704
H         -2.85253       -0.14514       -0.66489
H         -1.66162        1.98650       -0.82974
H          0.78734        2.09203       -0.54176
H         -3.49262       -2.10030        0.55945
H         -3.37879       -2.37455       -1.22344
H         -3.27696       -3.72917       -0.09260
H          0.09817        2.18178        3.86989
H          1.09970        1.49840        2.57598
H          1.60073        1.33433        4.29202
H         -0.06381       -2.52337        4.44955
H         -0.78162       -2.24728        2.82235
H          0.81858       -2.99620        2.98240

--Link1--
%chk=JID_4270.chk
%mem=8GB
%nprocshared=4
# B3LYP/6-311++G(d,p) empiricaldispersion=gd3bj scf=xqc pop=npa geom=check

CID_54377191_JID_4270_Energie_neutraal

0 1

--Link1--
%chk=JID_4270.chk
%mem=8GB
%nprocshared=4
# B3LYP/6-311++G(d,p) empiricaldispersion=gd3bj scf=xqc pop=npa geom=check

CID_54377191_JID_4270_Energie_kation

1 2

--Link1--
%chk=JID_4270.chk
%mem=8GB
%nprocshared=4
# B3LYP/6-311++G(d,p) empiricaldispersion=gd3bj scf=xqc pop=npa geom=check

CID_54377191_JID_4270_Energie_anion

-1 2
