%chk=JID_3214.chk
%mem=8GB
%nprocshared=4
# opt freq B3LYP/6-31G(d) empiricaldispersion=gd3bj scf=xqc

CID_89526330_JID_3214_neutraal

0 1
C          0.94795        0.08482        0.00977
C          0.79179        1.44598        0.67461
C          0.40522        2.55915       -0.30218
C         -0.96023        2.37498       -0.96137
C         -2.10569        2.91598       -0.12058
O         -2.12814        4.11328        0.18966
C         -3.24834        1.95804        0.28830
C         -3.86116        1.27046       -0.93418
C         -2.74318        0.98836        1.37289
O         -2.47432        1.33715        2.52074
O         -2.58338       -0.28101        0.90768
C         -2.15598       -1.21355        1.90380
N         -4.35448        2.78202        0.89140
H          1.64956        0.13593       -0.82881
H         -0.00421       -0.30408       -0.35923
H          1.33848       -0.63976        0.73182
H          0.06295        1.38059        1.48733
H          1.74937        1.71309        1.13820
H          0.44535        3.51814        0.22832
H          1.16907        2.60699       -1.08835
H         -0.98596        2.94591       -1.89828
H         -1.13420        1.33554       -1.23853
H         -3.16247        0.57908       -1.41702
H         -4.74281        0.67920       -0.65871
H         -4.16335        2.00064       -1.69421
H         -2.87927       -1.25826        2.72444
H         -2.09749       -2.20203        1.44047
H         -1.16256       -0.94648        2.27754
H         -3.98579        3.16225        1.77180
H         -4.46803        3.61695        0.30971

--Link1--
%chk=JID_3214.chk
%mem=8GB
%nprocshared=4
# B3LYP/6-311++G(d,p) empiricaldispersion=gd3bj scf=xqc pop=npa geom=check

CID_89526330_JID_3214_Energie_neutraal

0 1

--Link1--
%chk=JID_3214.chk
%mem=8GB
%nprocshared=4
# B3LYP/6-311++G(d,p) empiricaldispersion=gd3bj scf=xqc pop=npa geom=check

CID_89526330_JID_3214_Energie_kation

1 2

--Link1--
%chk=JID_3214.chk
%mem=8GB
%nprocshared=4
# B3LYP/6-311++G(d,p) empiricaldispersion=gd3bj scf=xqc pop=npa geom=check

CID_89526330_JID_3214_Energie_anion

-1 2
