%chk=JID_2138.chk
%mem=8GB
%nprocshared=4
# opt freq B3LYP/6-31G(d) empiricaldispersion=gd3bj scf=xqc

CID_129935333_JID_2138_neutraal

0 1
C         -2.54900       -0.97100        0.01300
C         -1.60345        0.09070        0.49616
N         -0.54202       -0.36291        1.21137
C          0.36149        0.53296        1.61585
N          0.28152        1.84383        1.39335
C         -0.78734        2.26111        0.68183
C         -1.79734        1.43783        0.21939
S         -3.14826        2.09457       -0.72770
C         -4.27171        2.76617        0.57174
C         -4.76723        1.68524        1.52633
C         -3.66662        3.94735        1.32285
N          1.42838        0.07377        2.35665
H         -2.62565       -0.95170       -1.07854
H         -2.19174       -1.96606        0.29990
H         -3.54049       -0.83775        0.45365
H         -0.79958        3.33036        0.48692
H         -5.14141        3.14197        0.01977
H         -3.96049        1.27572        2.14257
H         -5.51704        2.09955        2.20984
H         -5.24521        0.86322        0.98310
H         -3.27981        4.70659        0.63484
H         -4.43191        4.42941        1.94201
H         -2.86155        3.64058        1.99721
H          1.18182       -0.79663        2.80550
H          1.78405        0.81724        2.94014

--Link1--
%chk=JID_2138.chk
%mem=8GB
%nprocshared=4
# B3LYP/6-311++G(d,p) empiricaldispersion=gd3bj scf=xqc pop=npa geom=check

CID_129935333_JID_2138_Energie_neutraal

0 1

--Link1--
%chk=JID_2138.chk
%mem=8GB
%nprocshared=4
# B3LYP/6-311++G(d,p) empiricaldispersion=gd3bj scf=xqc pop=npa geom=check

CID_129935333_JID_2138_Energie_kation

1 2

--Link1--
%chk=JID_2138.chk
%mem=8GB
%nprocshared=4
# B3LYP/6-311++G(d,p) empiricaldispersion=gd3bj scf=xqc pop=npa geom=check

CID_129935333_JID_2138_Energie_anion

-1 2
