%chk=JID_9916.chk
%mem=8GB
%nprocshared=4
# opt freq B3LYP/6-31G(d) empiricaldispersion=gd3bj scf=xqc

CID_86177706_JID_9916_neutraal

0 1
C          0.96163        0.08175       -0.04294
C          0.93718       -1.40633       -0.36058
C          1.28140       -2.29428        0.83837
C          0.37368       -2.13018        2.06137
C         -1.11250       -2.40718        1.81468
C         -1.45080       -3.84284        1.39718
C         -1.05129       -4.93383        2.39856
C         -1.57948       -4.74691        3.82578
C         -3.10331       -4.64497        3.95378
C         -3.87878       -5.90821        3.56384
C         -3.62801       -7.12678        4.46141
C         -4.13651       -6.96096        5.89343
O         -5.58527       -6.89991        5.86972
C         -6.35314       -5.93492        6.42114
S         -5.77031       -4.61376        7.24303
N         -7.71265       -6.10309        6.25324
C         -8.48455       -7.08093        5.66183
O         -9.70339       -6.91960        5.58449
C         -7.82118       -8.31886        5.12834
H          0.16422        0.35727        0.65330
H          0.81517        0.66302       -0.95904
H          1.92153        0.37454        0.39393
H         -0.04299       -1.67766       -0.76753
H          1.66610       -1.60473       -1.15579
H          1.27515       -3.34146        0.51399
H          2.31268       -2.08094        1.14722
H          0.74342       -2.78480        2.85907
H          0.47596       -1.11061        2.45177
H         -1.66642       -2.15368        2.72604
H         -1.49186       -1.72264        1.04721
H         -2.53029       -3.90343        1.21330
H         -0.97745       -4.06435        0.43321
H         -1.38658       -5.90265        2.00964
H          0.04278       -4.99795        2.44102
H         -1.20957       -5.57079        4.44653
H         -1.13676       -3.84061        4.25574
H         -3.34143       -4.37075        4.98633
H         -3.46796       -3.81204        3.34206
H         -4.95014       -5.67298        3.56929
H         -3.63837       -6.17889        2.52935
H         -4.14555       -7.98147        4.00743
H         -2.56188       -7.37446        4.47726
H         -3.87608       -7.85431        6.47119
H         -3.66845       -6.10761        6.38663
H         -8.27142       -5.33965        6.61154
H         -7.19089       -8.07123        4.27096
H         -7.24034       -8.80815        5.91441
H         -8.59048       -9.02294        4.79597

--Link1--
%chk=JID_9916.chk
%mem=8GB
%nprocshared=4
# B3LYP/6-311++G(d,p) empiricaldispersion=gd3bj scf=xqc pop=npa geom=check

CID_86177706_JID_9916_Energie_neutraal

0 1

--Link1--
%chk=JID_9916.chk
%mem=8GB
%nprocshared=4
# B3LYP/6-311++G(d,p) empiricaldispersion=gd3bj scf=xqc pop=npa geom=check

CID_86177706_JID_9916_Energie_kation

1 2

--Link1--
%chk=JID_9916.chk
%mem=8GB
%nprocshared=4
# B3LYP/6-311++G(d,p) empiricaldispersion=gd3bj scf=xqc pop=npa geom=check

CID_86177706_JID_9916_Energie_anion

-1 2
