%chk=JID_9035.chk
%mem=8GB
%nprocshared=4
# opt freq B3LYP/6-31G(d) empiricaldispersion=gd3bj scf=xqc

CID_105693703_JID_9035_neutraal

0 1
C          1.07697        0.00822        0.06331
O          0.49036        1.11186        0.73174
C          1.42109        1.87121        1.50844
C          1.22919        1.63845        3.01774
C          1.68073        0.24552        3.53643
N          3.06190       -0.13118        3.18015
C          3.56173       -1.26180        3.97903
C          3.01045       -2.67148        3.68908
C          3.11373       -3.14859        2.25463
C          2.15528       -4.31886        2.26404
C          1.05061       -3.86841        3.23576
O          1.62215       -2.80151        4.02979
C          0.62325       -4.99445        4.18913
C         -0.18191       -6.08119        3.48321
C         -1.40417       -5.49563        2.78268
C         -1.02502       -4.36983        1.82495
C         -0.18091       -3.29754        2.51219
O          1.74167        2.73837        3.79364
C          3.15461        2.84596        3.86286
H          0.31422       -0.45354       -0.56967
H          1.42001       -0.73673        0.77959
H          1.90481        0.33265       -0.57438
H          2.45469        1.69861        1.18677
H          1.21581        2.92652        1.29212
H          0.14621        1.67150        3.19738
H          1.57718        0.25607        4.62843
H          0.99093       -0.50646        3.14158
H          3.10945       -0.36071        2.19148
H          4.64633       -1.29468        3.81963
H          3.41953       -1.03319        5.04256
H          3.55248       -3.37331        4.33768
H          4.13163       -3.42998        1.97123
H          2.75449       -2.39889        1.54532
H          2.67908       -5.20303        2.64809
H          1.79603       -4.56864        1.26189
H          0.02471       -4.57012        5.00662
H          1.50198       -5.43499        4.67665
H         -0.50308       -6.83255        4.21342
H          0.44936       -6.59912        2.75138
H         -1.92958       -6.28563        2.23430
H         -2.10388       -5.11128        3.53521
H         -0.47857       -4.78658        0.97123
H         -1.93552       -3.91344        1.41970
H         -0.80639       -2.75920        3.23739
H          0.12358       -2.54250        1.77846
H          3.56552        2.09157        4.53810
H          3.61886        2.78171        2.87563
H          3.39424        3.82647        4.28485

--Link1--
%chk=JID_9035.chk
%mem=8GB
%nprocshared=4
# B3LYP/6-311++G(d,p) empiricaldispersion=gd3bj scf=xqc pop=npa geom=check

CID_105693703_JID_9035_Energie_neutraal

0 1

--Link1--
%chk=JID_9035.chk
%mem=8GB
%nprocshared=4
# B3LYP/6-311++G(d,p) empiricaldispersion=gd3bj scf=xqc pop=npa geom=check

CID_105693703_JID_9035_Energie_kation

1 2

--Link1--
%chk=JID_9035.chk
%mem=8GB
%nprocshared=4
# B3LYP/6-311++G(d,p) empiricaldispersion=gd3bj scf=xqc pop=npa geom=check

CID_105693703_JID_9035_Energie_anion

-1 2
