%chk=JID_574.chk
%mem=8GB
%nprocshared=4
# opt freq B3LYP/6-31G(d) empiricaldispersion=gd3bj scf=xqc

CID_141796137_JID_574_neutraal

0 1
C          1.02486       -0.07056        0.06636
C          0.86950        1.41247        0.36397
C          1.60606        2.33619       -0.61629
C          1.01999        2.36008       -2.02414
C         -0.01120        3.20485       -2.25277
C         -0.73826        3.43239       -3.48432
C         -1.70862        4.34017       -3.68197
C         -2.26829        5.34427       -2.72589
C          1.61640        1.52169       -3.06185
C          2.66847        0.70064       -2.94443
H          0.56544       -0.33897       -0.88918
H          0.53339       -0.66171        0.84600
H          2.08017       -0.35881        0.04340
H         -0.19757        1.66453        0.38952
H          1.25791        1.60285        1.37204
H          1.55827        3.35438       -0.20300
H          2.67724        2.10794       -0.62261
H         -0.35805        3.79235       -1.40462
H         -0.48790        2.80643       -4.33647
H         -2.15924        4.37209       -4.67393
H         -2.16479        6.34873       -3.14888
H         -3.33407        5.15034       -2.56995
H         -1.77901        5.34509       -1.75005
H          1.16716        1.56484       -4.05061
H          3.01162        0.13335       -3.80490
H          3.21903        0.55615       -2.02356

--Link1--
%chk=JID_574.chk
%mem=8GB
%nprocshared=4
# B3LYP/6-311++G(d,p) empiricaldispersion=gd3bj scf=xqc pop=npa geom=check

CID_141796137_JID_574_Energie_neutraal

0 1

--Link1--
%chk=JID_574.chk
%mem=8GB
%nprocshared=4
# B3LYP/6-311++G(d,p) empiricaldispersion=gd3bj scf=xqc pop=npa geom=check

CID_141796137_JID_574_Energie_kation

1 2

--Link1--
%chk=JID_574.chk
%mem=8GB
%nprocshared=4
# B3LYP/6-311++G(d,p) empiricaldispersion=gd3bj scf=xqc pop=npa geom=check

CID_141796137_JID_574_Energie_anion

-1 2
