%chk=JID_7552.chk
%mem=8GB
%nprocshared=4
# opt freq B3LYP/6-31G(d) empiricaldispersion=gd3bj scf=xqc

CID_80545775_JID_7552_neutraal

0 1
C          0.93375       -0.00266        0.07486
C          0.46280       -0.15515       -1.36316
C          1.10381       -1.34112       -2.03554
C          0.50114       -2.60571       -1.97236
C          1.09523       -3.72268       -2.56973
C          2.30789       -3.56979       -3.23923
C          2.91984       -2.31488       -3.30621
C          2.32386       -1.20680       -2.70529
O          0.38159       -4.88073       -2.43398
C          0.94499       -6.10371       -2.90620
C          0.64673       -6.28249       -4.36407
C          1.55937       -6.66110       -5.27327
C          1.30235       -6.81395       -6.72119
O          2.17297       -7.19061       -7.49139
O          0.03361       -6.47134       -7.04480
C         -0.29543       -6.54639       -8.43885
C          0.08979       -5.25527       -9.13702
H          0.68596       -0.88790        0.67041
H          0.45385        0.86410        0.54022
H          2.01822        0.14279        0.12482
H         -0.62859       -0.26145       -1.38694
H          0.69099        0.75733       -1.92735
H         -0.44519       -2.72937       -1.44959
H          2.80532       -4.39892       -3.72768
H          3.86513       -2.20136       -3.83110
H          2.81620       -0.23874       -2.76334
H          2.00868       -6.19037       -2.65559
H          0.43711       -6.90653       -2.35936
H         -0.37798       -6.07236       -4.66208
H          2.58332       -6.87807       -4.98745
H          0.17519       -7.41526       -8.91318
H         -1.37876       -6.69092       -8.50466
H          1.17069       -5.08941       -9.08826
H         -0.21264       -5.27701      -10.18773
H         -0.38580       -4.39783       -8.64957

--Link1--
%chk=JID_7552.chk
%mem=8GB
%nprocshared=4
# B3LYP/6-311++G(d,p) empiricaldispersion=gd3bj scf=xqc pop=npa geom=check

CID_80545775_JID_7552_Energie_neutraal

0 1

--Link1--
%chk=JID_7552.chk
%mem=8GB
%nprocshared=4
# B3LYP/6-311++G(d,p) empiricaldispersion=gd3bj scf=xqc pop=npa geom=check

CID_80545775_JID_7552_Energie_kation

1 2

--Link1--
%chk=JID_7552.chk
%mem=8GB
%nprocshared=4
# B3LYP/6-311++G(d,p) empiricaldispersion=gd3bj scf=xqc pop=npa geom=check

CID_80545775_JID_7552_Energie_anion

-1 2
