%chk=JID_9411.chk
%mem=8GB
%nprocshared=4
# opt freq B3LYP/6-31G(d) empiricaldispersion=gd3bj scf=xqc

CID_42604079_JID_9411_neutraal

0 1
C          1.09667        0.00469       -0.02517
C          0.24504       -0.71951        1.02548
C          0.26185       -0.02311        2.40943
C         -0.49955        1.30088        2.56350
C         -2.02396        1.20717        2.67745
O         -2.51026        1.08345        4.01652
C         -2.38890       -0.19890        4.63220
C         -3.01566       -1.33366        3.85653
C         -4.31696       -1.22410        3.34999
C         -4.85861       -2.24742        2.56841
C         -4.11538       -3.39337        2.28277
C         -2.84151       -3.53502        2.83219
C         -2.30009       -2.51454        3.62010
O         -4.73739       -4.30385        1.47296
C         -3.89521       -5.27353        0.85994
O         -1.11470       -0.90741        0.58332
O         -1.50936        0.21354       -0.26486
O          0.78635       -2.06254        1.17880
O          2.14292       -1.96292        1.71253
H          0.75712        1.02875       -0.20812
H          1.05643       -0.53107       -0.98077
H          2.15017        0.05683        0.26859
H         -0.08044       -0.73561        3.16168
H          1.30822        0.17671        2.67818
H         -0.11964        1.80472        3.46130
H         -0.24802        1.94407        1.71267
H         -2.42795        2.16424        2.32606
H         -2.46938        0.45088        2.03365
H         -1.33455       -0.38764        4.85510
H         -2.89311       -0.13615        5.60368
H         -4.89817       -0.32260        3.53160
H         -5.85883       -2.13720        2.15675
H         -2.24272       -4.42273        2.66188
H         -1.29941       -2.64265        4.02608
H         -3.05478       -4.80297        0.33730
H         -3.54286       -6.00445        1.59466
H         -4.49006       -5.81009        0.11461
H         -1.75324       -0.32503       -1.04049
H          1.99042       -2.52089        2.49659

--Link1--
%chk=JID_9411.chk
%mem=8GB
%nprocshared=4
# B3LYP/6-311++G(d,p) empiricaldispersion=gd3bj scf=xqc pop=npa geom=check

CID_42604079_JID_9411_Energie_neutraal

0 1

--Link1--
%chk=JID_9411.chk
%mem=8GB
%nprocshared=4
# B3LYP/6-311++G(d,p) empiricaldispersion=gd3bj scf=xqc pop=npa geom=check

CID_42604079_JID_9411_Energie_kation

1 2

--Link1--
%chk=JID_9411.chk
%mem=8GB
%nprocshared=4
# B3LYP/6-311++G(d,p) empiricaldispersion=gd3bj scf=xqc pop=npa geom=check

CID_42604079_JID_9411_Energie_anion

-1 2
