%chk=JID_7782.chk
%mem=8GB
%nprocshared=4
# opt freq B3LYP/6-31G(d) empiricaldispersion=gd3bj scf=xqc

CID_117551742_JID_7782_neutraal

0 1
C          2.27900       -0.09200       -0.00100
C          0.80660       -0.19280        0.12329
C         -0.07922       -1.25468        0.16082
N         -1.37457       -0.79425        0.22263
C         -1.29984        0.51850        0.25659
N          0.00922        0.92428        0.20433
C         -2.43657        1.48082        0.33870
C         -3.37969        1.18756        1.50897
C         -4.72796        0.90917        0.86286
N         -4.69861        1.66775       -0.39368
C         -3.33765        1.42282       -0.89782
C          0.22824       -2.66943        0.09977
C         -0.64723       -3.54136       -0.54247
N         -0.45289       -4.88096       -0.65872
C          0.66276       -5.37822       -0.08707
C          1.58863       -4.60359        0.59256
C          1.36379       -3.23032        0.68787
H          2.57988        0.89239       -0.37493
H          2.75573       -0.24286        0.97242
H          2.66587       -0.84039       -0.69956
H          0.32814        1.88332        0.20669
H         -2.04902        2.50173        0.45753
H         -3.45292        2.07897        2.14499
H         -3.06068        0.35565        2.14582
H         -4.84446       -0.15980        0.64879
H         -5.56168        1.21882        1.50011
H         -4.80007        2.65958       -0.17831
H         -3.05494        2.17684       -1.64010
H         -3.30676        0.44601       -1.39637
H         -1.56168       -3.17338       -1.00286
H          0.79496       -6.45166       -0.18691
H          2.46214       -5.05889        1.04521
H          2.06816       -2.61734        1.24047

--Link1--
%chk=JID_7782.chk
%mem=8GB
%nprocshared=4
# B3LYP/6-311++G(d,p) empiricaldispersion=gd3bj scf=xqc pop=npa geom=check

CID_117551742_JID_7782_Energie_neutraal

0 1

--Link1--
%chk=JID_7782.chk
%mem=8GB
%nprocshared=4
# B3LYP/6-311++G(d,p) empiricaldispersion=gd3bj scf=xqc pop=npa geom=check

CID_117551742_JID_7782_Energie_kation

1 2

--Link1--
%chk=JID_7782.chk
%mem=8GB
%nprocshared=4
# B3LYP/6-311++G(d,p) empiricaldispersion=gd3bj scf=xqc pop=npa geom=check

CID_117551742_JID_7782_Energie_anion

-1 2
