%chk=JID_10818.chk
%mem=8GB
%nprocshared=4
# opt freq B3LYP/6-31G(d) empiricaldispersion=gd3bj scf=xqc

CID_21523970_JID_10818_neutraal

0 1
C          1.30600        0.17900       -0.14100
C          0.47641       -0.33339       -1.29731
C         -0.79429       -0.77805       -0.59585
N         -0.97021        0.16226        0.50796
C          0.27529        0.90853        0.70184
C         -1.65898       -0.27058        1.72833
C         -3.02939       -0.93622        1.46794
C         -2.97757       -2.42720        1.12575
C         -2.09628       -3.22005        2.09542
C         -0.72662       -2.59390        2.36777
C         -0.84402       -1.12001        2.72968
O         -1.98890       -4.61916        1.74545
C         -1.34606       -4.98266        0.60932
O         -0.87898       -4.23686       -0.23573
C         -1.22027       -6.46137        0.52691
C         -0.40341       -6.99700       -0.47970
C         -0.23617       -8.37788       -0.59166
C         -0.88651       -9.23086        0.29836
C         -1.70471       -8.70642        1.29930
C         -1.87310       -7.32446        1.41608
H          1.73761       -0.65890        0.41991
H          2.11798        0.83356       -0.47006
H          0.96822       -1.14927       -1.83471
H          0.26566        0.47592       -2.00673
H         -1.64995       -0.77101       -1.27768
H         -0.62983       -1.79402       -0.24927
H          0.60388        1.01854        1.73881
H          0.12937        1.92215        0.30855
H         -1.89095        0.66722        2.25396
H         -3.63459       -0.82293        2.37819
H         -3.57453       -0.39573        0.68398
H         -2.66361       -2.56809        0.08945
H         -3.99449       -2.83958        1.15505
H         -2.62758       -3.22658        3.05680
H         -0.03980       -2.72073        1.52785
H         -0.24773       -3.13495        3.19410
H          0.15842       -0.71084        2.88981
H         -1.33996       -1.05000        3.70791
H          0.11091       -6.33836       -1.17754
H          0.40221       -8.78560       -1.37161
H         -0.75543      -10.30678        0.21168
H         -2.21147       -9.37486        1.99103
H         -2.51439       -6.93563        2.20280

--Link1--
%chk=JID_10818.chk
%mem=8GB
%nprocshared=4
# B3LYP/6-311++G(d,p) empiricaldispersion=gd3bj scf=xqc pop=npa geom=check

CID_21523970_JID_10818_Energie_neutraal

0 1

--Link1--
%chk=JID_10818.chk
%mem=8GB
%nprocshared=4
# B3LYP/6-311++G(d,p) empiricaldispersion=gd3bj scf=xqc pop=npa geom=check

CID_21523970_JID_10818_Energie_kation

1 2

--Link1--
%chk=JID_10818.chk
%mem=8GB
%nprocshared=4
# B3LYP/6-311++G(d,p) empiricaldispersion=gd3bj scf=xqc pop=npa geom=check

CID_21523970_JID_10818_Energie_anion

-1 2
