%chk=JID_6428.chk
%mem=8GB
%nprocshared=4
# opt freq B3LYP/6-31G(d) empiricaldispersion=gd3bj scf=xqc

CID_148369765_JID_6428_neutraal

0 1
C          1.05216       -0.03260        0.07885
C          0.42727        1.04656       -0.79620
C          1.05062        1.10842       -2.20804
C          0.79879       -0.16018       -3.01825
C          1.88050       -0.95325       -3.44059
C          1.66607       -2.13812       -4.15147
C          0.36672       -2.53480       -4.44678
C         -0.71712       -1.76536       -4.04788
C         -0.50286       -0.58315       -3.33682
O          0.11254       -3.68525       -5.13299
C          0.58777        2.35823       -2.91303
N         -0.60768        2.58884       -3.42490
N         -0.62500        3.86344       -3.93699
C          0.55087        4.39628       -3.71144
N          1.33957        3.49811       -3.06238
C          2.67836        3.73726       -2.59592
H          0.85843       -1.03434       -0.31612
H          0.63043        0.01329        1.08812
H          2.13512        0.10485        0.15974
H         -0.65680        0.88652       -0.84824
H          0.56986        2.01224       -0.29313
H          2.13700        1.18797       -2.06878
H          2.90233       -0.66020       -3.21177
H          2.51853       -2.73412       -4.46068
H         -1.72835       -2.07875       -4.29085
H         -1.36470        0.01337       -3.04145
H          0.95835       -4.10234       -5.36216
H          0.85899        5.39568       -3.98378
H          2.71363        3.54727       -1.51992
H          3.35807        3.06799       -3.12866
H          2.95517        4.77678       -2.79022

--Link1--
%chk=JID_6428.chk
%mem=8GB
%nprocshared=4
# B3LYP/6-311++G(d,p) empiricaldispersion=gd3bj scf=xqc pop=npa geom=check

CID_148369765_JID_6428_Energie_neutraal

0 1

--Link1--
%chk=JID_6428.chk
%mem=8GB
%nprocshared=4
# B3LYP/6-311++G(d,p) empiricaldispersion=gd3bj scf=xqc pop=npa geom=check

CID_148369765_JID_6428_Energie_kation

1 2

--Link1--
%chk=JID_6428.chk
%mem=8GB
%nprocshared=4
# B3LYP/6-311++G(d,p) empiricaldispersion=gd3bj scf=xqc pop=npa geom=check

CID_148369765_JID_6428_Energie_anion

-1 2
