%chk=JID_6548.chk
%mem=8GB
%nprocshared=4
# opt freq B3LYP/6-31G(d) empiricaldispersion=gd3bj scf=xqc

CID_15021928_JID_6548_neutraal

0 1
C          1.01776        0.07827        0.05965
C          0.18332       -1.10356        0.56356
C          0.52815       -1.38078        2.03224
C         -1.33239       -0.84814        0.38525
C         -1.74438       -0.67460       -1.06758
C         -2.20648        0.57990       -1.50200
C         -2.52761        0.74161       -2.83597
C         -2.43398       -0.29618       -3.74306
C         -2.90113        0.16505       -5.07128
C         -2.93938        1.69028       -4.82080
O         -2.95490        1.92256       -3.38232
C         -1.69986        2.38851       -5.39797
C         -4.20624        2.31743       -5.40357
C         -1.99920       -1.54648       -3.34719
C         -1.63882       -1.72807       -2.00618
O         -2.07448       -1.91609        0.97739
H          0.74325        1.00545        0.57422
H          0.88744        0.23272       -1.01590
H          2.08477       -0.09925        0.23299
H          0.47213       -1.99833       -0.00310
H          0.23681       -0.54134        2.67256
H          0.02084       -2.27994        2.39652
H          1.60464       -1.54225        2.15450
H         -1.60647        0.05085        0.95096
H         -2.29545        1.42012       -0.82179
H         -3.89674       -0.24566       -5.27166
H         -2.22239       -0.11394       -5.88254
H         -1.70613        3.45676       -5.15346
H         -0.77808        1.97930       -4.96906
H         -1.65040        2.28075       -6.48649
H         -5.10204        1.88506       -4.94364
H         -4.24096        3.39252       -5.19301
H         -4.26513        2.17245       -6.48699
H         -1.93067       -2.36699       -4.05373
H         -1.26813       -2.70368       -1.69946
H         -2.12636       -2.64327        0.33855

--Link1--
%chk=JID_6548.chk
%mem=8GB
%nprocshared=4
# B3LYP/6-311++G(d,p) empiricaldispersion=gd3bj scf=xqc pop=npa geom=check

CID_15021928_JID_6548_Energie_neutraal

0 1

--Link1--
%chk=JID_6548.chk
%mem=8GB
%nprocshared=4
# B3LYP/6-311++G(d,p) empiricaldispersion=gd3bj scf=xqc pop=npa geom=check

CID_15021928_JID_6548_Energie_kation

1 2

--Link1--
%chk=JID_6548.chk
%mem=8GB
%nprocshared=4
# B3LYP/6-311++G(d,p) empiricaldispersion=gd3bj scf=xqc pop=npa geom=check

CID_15021928_JID_6548_Energie_anion

-1 2
