%chk=JID_4011.chk
%mem=8GB
%nprocshared=4
# opt freq B3LYP/6-31G(d) empiricaldispersion=gd3bj scf=xqc

CID_107857597_JID_4011_neutraal

0 1
C          1.07541        0.06505       -0.00906
C          0.84224        0.18749       -1.50714
C          1.09666       -1.12084       -2.27614
C          0.20821       -2.30555       -1.85357
C         -1.29213       -2.04771       -1.91696
N          0.90416       -0.86294       -3.69058
C          1.80054       -0.92849       -4.70533
N          1.51364       -0.47827       -5.88345
C          2.63436       -0.73436       -6.82168
C          3.93143       -0.81948       -6.01833
S          3.39468       -1.59832       -4.48784
C          2.66021        0.38307       -7.88986
C          3.84579        0.23031       -8.84759
C          1.35836        0.40427       -8.70033
H          0.35151       -0.60982        0.45668
H          0.96968        1.04455        0.46836
H          2.08278       -0.30698        0.20263
H         -0.17457        0.55579       -1.68883
H          1.51497        0.96277       -1.89719
H          2.13137       -1.41794       -2.07412
H          0.43615       -3.16757       -2.49396
H          0.46669       -2.60871       -0.83207
H         -1.60951       -1.76373       -2.92460
H         -1.83686       -2.95660       -1.64070
H         -1.59484       -1.25964       -1.22167
H          0.03313       -0.41870       -3.95732
H          2.44486       -1.69626       -7.31971
H          4.69902       -1.41226       -6.52284
H          4.33320        0.17196       -5.78563
H          2.75215        1.35465       -7.38634
H          3.82996       -0.74574       -9.34430
H          3.82173        1.00427       -9.62244
H          4.80016        0.33000       -8.32141
H          0.49234        0.59795       -8.05943
H          1.38599        1.19496       -9.45796
H          1.19549       -0.54961       -9.21347

--Link1--
%chk=JID_4011.chk
%mem=8GB
%nprocshared=4
# B3LYP/6-311++G(d,p) empiricaldispersion=gd3bj scf=xqc pop=npa geom=check

CID_107857597_JID_4011_Energie_neutraal

0 1

--Link1--
%chk=JID_4011.chk
%mem=8GB
%nprocshared=4
# B3LYP/6-311++G(d,p) empiricaldispersion=gd3bj scf=xqc pop=npa geom=check

CID_107857597_JID_4011_Energie_kation

1 2

--Link1--
%chk=JID_4011.chk
%mem=8GB
%nprocshared=4
# B3LYP/6-311++G(d,p) empiricaldispersion=gd3bj scf=xqc pop=npa geom=check

CID_107857597_JID_4011_Energie_anion

-1 2
