%chk=JID_4272.chk
%mem=8GB
%nprocshared=4
# opt freq B3LYP/6-31G(d) empiricaldispersion=gd3bj scf=xqc

CID_152072651_JID_4272_neutraal

0 1
C          0.92782        0.06822        0.01165
C          0.40562       -0.96543       -0.97830
C          0.47111       -2.39550       -0.44137
O         -0.54142       -2.63169        0.54529
C         -0.07775       -2.56394        1.83223
C         -0.62899       -1.61750        2.71664
C         -0.17514       -1.43514        4.05791
C          0.83857       -2.21922        4.65064
C          1.33379       -3.23052        3.81317
N          2.23986       -4.19107        4.03597
N          2.00427       -5.02548        3.01316
C          1.59929       -4.37903        1.83422
C          0.87543       -3.38015        2.45025
O          2.74766       -5.04639        1.89736
H          1.90273       -0.22185        0.41584
H          0.23228        0.21866        0.83948
H          1.04454        1.03541       -0.48890
H         -0.62475       -0.71008       -1.24806
H          1.01296       -0.90701       -1.88887
H          0.25824       -3.08509       -1.26665
H          1.48677       -2.62147       -0.09883
H         -1.41697       -0.96113        2.34518
H         -0.63561       -0.64581        4.65246
H          1.17795       -2.07880        5.66755

--Link1--
%chk=JID_4272.chk
%mem=8GB
%nprocshared=4
# B3LYP/6-311++G(d,p) empiricaldispersion=gd3bj scf=xqc pop=npa geom=check

CID_152072651_JID_4272_Energie_neutraal

0 1

--Link1--
%chk=JID_4272.chk
%mem=8GB
%nprocshared=4
# B3LYP/6-311++G(d,p) empiricaldispersion=gd3bj scf=xqc pop=npa geom=check

CID_152072651_JID_4272_Energie_kation

1 2

--Link1--
%chk=JID_4272.chk
%mem=8GB
%nprocshared=4
# B3LYP/6-311++G(d,p) empiricaldispersion=gd3bj scf=xqc pop=npa geom=check

CID_152072651_JID_4272_Energie_anion

-1 2
