%chk=JID_9703.chk
%mem=8GB
%nprocshared=4
# opt freq B3LYP/6-31G(d) empiricaldispersion=gd3bj scf=xqc

CID_113433483_JID_9703_neutraal

0 1
C          2.32100       -0.05900       -0.00600
C          1.29326        0.18270       -1.04597
C          0.36860        1.20237       -1.14418
N         -0.30418        1.00414       -2.32439
N          0.06442       -0.11949       -2.95557
C          1.04315       -0.60907       -2.19338
N          0.20140        2.21511       -0.21981
S         -0.81575        3.46339       -0.40621
O         -0.43855        4.53276        0.48988
O         -1.07745        3.70336       -1.81161
C         -2.38690        2.99838        0.19717
C         -2.66147        2.00612        1.12179
S         -4.35198        1.88930        1.41248
C         -4.71981        3.18490        0.36187
C         -3.57397        3.68396       -0.22560
C         -6.09309        3.60708        0.19982
O         -7.10040        3.15255        0.71958
O         -6.18592        4.64937       -0.65690
C         -1.75281        1.07683        1.85602
H          1.84579       -0.30017        0.95017
H          2.97635       -0.89165       -0.28071
H          2.94445        0.83018        0.13182
H         -1.01017        1.59295       -2.75953
H          1.53859       -1.52247       -2.50420
H          0.82305        2.28025        0.56973
H         -3.58729        4.51148       -0.92937
H         -7.14777        4.84049       -0.67405
H         -2.23897        0.62444        2.72715
H         -1.42803        0.26590        1.19673
H         -0.86966        1.60896        2.22243

--Link1--
%chk=JID_9703.chk
%mem=8GB
%nprocshared=4
# B3LYP/6-311++G(d,p) empiricaldispersion=gd3bj scf=xqc pop=npa geom=check

CID_113433483_JID_9703_Energie_neutraal

0 1

--Link1--
%chk=JID_9703.chk
%mem=8GB
%nprocshared=4
# B3LYP/6-311++G(d,p) empiricaldispersion=gd3bj scf=xqc pop=npa geom=check

CID_113433483_JID_9703_Energie_kation

1 2

--Link1--
%chk=JID_9703.chk
%mem=8GB
%nprocshared=4
# B3LYP/6-311++G(d,p) empiricaldispersion=gd3bj scf=xqc pop=npa geom=check

CID_113433483_JID_9703_Energie_anion

-1 2
