%chk=JID_6104.chk
%mem=8GB
%nprocshared=4
# opt freq B3LYP/6-31G(d) empiricaldispersion=gd3bj scf=xqc

CID_76947160_JID_6104_neutraal

0 1
C          0.93150        0.02493       -0.06846
C          0.11929        0.31365       -1.33077
C          0.28207       -0.73895       -2.43718
O         -0.49824       -0.94579       -3.35706
O          1.46208       -1.39159       -2.40774
N         -1.31377        0.54534       -1.05336
C         -1.89519        1.76152       -1.60894
C         -2.05383       -0.49842       -0.51807
O         -1.56929       -1.54703       -0.10373
C         -3.51932       -0.32666       -0.45420
C         -4.23314       -0.56087       -1.56483
C         -5.65275       -0.43908       -1.59818
C         -6.57501       -0.23328       -0.58319
C         -7.92157       -0.16929       -1.04828
C         -8.00086       -0.32854       -2.41079
S         -6.46490       -0.55576       -3.11796
H          0.76094       -0.98369        0.31906
H          0.69050        0.74133        0.72399
H          2.00425        0.10483       -0.27723
H          0.52341        1.24205       -1.75580
H          1.39640       -2.02156       -3.15589
H         -1.99075        1.64069       -2.69181
H         -2.87527        1.98173       -1.18089
H         -1.23637        2.60710       -1.38940
H         -3.92865       -0.06353        0.51002
H         -3.71494       -0.84772       -2.48001
H         -6.30584       -0.13799        0.46148
H         -8.78556       -0.01793       -0.41296
H         -8.88874       -0.32633       -3.02798

--Link1--
%chk=JID_6104.chk
%mem=8GB
%nprocshared=4
# B3LYP/6-311++G(d,p) empiricaldispersion=gd3bj scf=xqc pop=npa geom=check

CID_76947160_JID_6104_Energie_neutraal

0 1

--Link1--
%chk=JID_6104.chk
%mem=8GB
%nprocshared=4
# B3LYP/6-311++G(d,p) empiricaldispersion=gd3bj scf=xqc pop=npa geom=check

CID_76947160_JID_6104_Energie_kation

1 2

--Link1--
%chk=JID_6104.chk
%mem=8GB
%nprocshared=4
# B3LYP/6-311++G(d,p) empiricaldispersion=gd3bj scf=xqc pop=npa geom=check

CID_76947160_JID_6104_Energie_anion

-1 2
