%chk=JID_6263.chk
%mem=8GB
%nprocshared=4
# opt freq B3LYP/6-31G(d) empiricaldispersion=gd3bj scf=xqc

CID_68770315_JID_6263_neutraal

0 1
C         -1.50500        0.02200       -0.20100
C         -0.42496        1.10263       -0.03076
C          0.91861        0.67203       -0.63612
N          1.28238       -0.63563       -0.10996
C          0.32775       -1.66528       -0.49106
C         -1.00817       -1.37601        0.20531
N          0.79738       -3.00159       -0.19951
C          1.76759       -3.64109       -0.97796
C          2.27827       -4.86189       -0.50750
C          3.20372       -5.60375       -1.24707
C          3.62581       -5.14339       -2.48881
C          3.11222       -3.95070       -2.98860
C          2.18148       -3.21514       -2.24426
C          1.97844       -0.61952        1.08164
O          2.60360        0.32240        1.54607
O          1.90940       -1.75679        1.80154
H         -2.39175        0.28662        0.38557
H         -1.81545       -0.00387       -1.25314
H         -0.75890        2.03947       -0.48999
H         -0.29339        1.29859        1.04084
H          0.84659        0.60039       -1.72773
H          1.68910        1.41626       -0.40747
H          0.14210       -1.57802       -1.56886
H         -0.89576       -1.42047        1.29595
H         -1.75700       -2.12821       -0.06928
H          1.06296       -3.05328        0.78702
H          1.94499       -5.25032        0.45212
H          3.58446       -6.54183       -0.85339
H          4.34429       -5.71529       -3.06908
H          3.43064       -3.58877       -3.96262
H          1.80960       -2.29448       -2.68003
H          2.47983       -1.54185        2.56920

--Link1--
%chk=JID_6263.chk
%mem=8GB
%nprocshared=4
# B3LYP/6-311++G(d,p) empiricaldispersion=gd3bj scf=xqc pop=npa geom=check

CID_68770315_JID_6263_Energie_neutraal

0 1

--Link1--
%chk=JID_6263.chk
%mem=8GB
%nprocshared=4
# B3LYP/6-311++G(d,p) empiricaldispersion=gd3bj scf=xqc pop=npa geom=check

CID_68770315_JID_6263_Energie_kation

1 2

--Link1--
%chk=JID_6263.chk
%mem=8GB
%nprocshared=4
# B3LYP/6-311++G(d,p) empiricaldispersion=gd3bj scf=xqc pop=npa geom=check

CID_68770315_JID_6263_Energie_anion

-1 2
