%chk=JID_5453.chk
%mem=8GB
%nprocshared=4
# opt freq B3LYP/6-31G(d) empiricaldispersion=gd3bj scf=xqc

CID_129746774_JID_5453_neutraal

0 1
C          2.11000        0.69100        0.38300
C          2.24632       -0.69864       -0.25865
C          0.99339       -1.57117       -0.04869
C         -0.24970       -0.76184       -0.24594
C         -0.28704        0.62151       -0.31114
C          0.93098        1.47645       -0.21417
C         -1.63064        0.99909       -0.49927
C         -2.37358       -0.16014       -0.52476
N         -1.54189       -1.25796       -0.34582
C         -1.99434       -2.61666       -0.27690
N         -1.12853       -3.61534       -0.05886
N         -1.91043       -4.70992       -0.05087
C         -3.23548       -4.44172       -0.26514
C         -3.32414       -3.07906       -0.40748
N         -4.17234       -5.40486       -0.30024
H          1.96425        0.57293        1.46445
H          3.03595        1.26024        0.24397
H          2.42523       -0.57472       -1.33480
H          3.12163       -1.21599        0.15035
H          1.04040       -2.40907       -0.75150
H          1.00185       -1.97328        0.97132
H          0.73019        2.36156        0.39970
H          1.19716        1.82610       -1.21910
H         -2.02147        2.00296       -0.60380
H         -3.43883       -0.29267       -0.64375
H         -1.47856       -5.61131        0.10856
H         -4.22246       -2.50754       -0.58358
H         -5.13276       -5.19163       -0.56075
H         -3.95823       -6.39829       -0.31072

--Link1--
%chk=JID_5453.chk
%mem=8GB
%nprocshared=4
# B3LYP/6-311++G(d,p) empiricaldispersion=gd3bj scf=xqc pop=npa geom=check

CID_129746774_JID_5453_Energie_neutraal

0 1

--Link1--
%chk=JID_5453.chk
%mem=8GB
%nprocshared=4
# B3LYP/6-311++G(d,p) empiricaldispersion=gd3bj scf=xqc pop=npa geom=check

CID_129746774_JID_5453_Energie_kation

1 2

--Link1--
%chk=JID_5453.chk
%mem=8GB
%nprocshared=4
# B3LYP/6-311++G(d,p) empiricaldispersion=gd3bj scf=xqc pop=npa geom=check

CID_129746774_JID_5453_Energie_anion

-1 2
