%chk=JID_8409.chk
%mem=8GB
%nprocshared=4
# opt freq B3LYP/6-31G(d) empiricaldispersion=gd3bj scf=xqc

CID_66422666_JID_8409_neutraal

0 1
C          1.08300        1.23200        0.26800
C         -0.14669        1.34259       -0.63632
S         -1.03378       -0.23816       -0.76325
C          0.39540       -1.27453       -1.21321
C          1.58638       -1.10543       -0.24587
N          2.10246        0.28403       -0.20843
C          2.71646       -2.05907       -0.67641
C          3.60623       -2.39477        0.49668
O          3.31146       -3.30539        1.27262
N          4.70596       -1.64079        0.77161
C          5.46081       -0.75417       -0.09976
C          5.89541        0.49998        0.65781
C          7.10804        1.20368        0.04382
C          6.96901        1.63343       -1.42063
C          5.83858        2.62338       -1.69517
C          6.04449        3.94233       -1.00050
O          7.10827        4.48279       -0.75023
O          4.88049        4.54151       -0.68614
H          1.55370        2.22091        0.31954
H          0.78566        0.98052        1.29416
H         -0.83645        2.09067       -0.23263
H          0.13941        1.66815       -1.64223
H          0.68861       -1.03196       -2.24089
H          0.05265       -2.31499       -1.20867
H          1.26025       -1.38440        0.76619
H          2.87941        0.31237        0.45502
H          2.29793       -3.01485       -1.01957
H          3.28294       -1.67282       -1.52775
H          5.20312       -2.00759        1.57647
H          6.33369       -1.32804       -0.42963
H          4.88662       -0.48452       -0.98755
H          5.05047        1.19417        0.73525
H          6.15532        0.23475        1.69096
H          7.34958        2.07710        0.66145
H          7.97367        0.53348        0.12119
H          7.92230        2.07750       -1.73513
H          6.82442        0.74718       -2.04936
H          5.78466        2.82849       -2.77035
H          4.87865        2.19432       -1.39108
H          5.15297        5.38723       -0.27166

--Link1--
%chk=JID_8409.chk
%mem=8GB
%nprocshared=4
# B3LYP/6-311++G(d,p) empiricaldispersion=gd3bj scf=xqc pop=npa geom=check

CID_66422666_JID_8409_Energie_neutraal

0 1

--Link1--
%chk=JID_8409.chk
%mem=8GB
%nprocshared=4
# B3LYP/6-311++G(d,p) empiricaldispersion=gd3bj scf=xqc pop=npa geom=check

CID_66422666_JID_8409_Energie_kation

1 2

--Link1--
%chk=JID_8409.chk
%mem=8GB
%nprocshared=4
# B3LYP/6-311++G(d,p) empiricaldispersion=gd3bj scf=xqc pop=npa geom=check

CID_66422666_JID_8409_Energie_anion

-1 2
