%chk=JID_3300.chk
%mem=8GB
%nprocshared=4
# opt freq B3LYP/6-31G(d) empiricaldispersion=gd3bj scf=xqc

CID_63632930_JID_3300_neutraal

0 1
C          0.93749        0.00080        0.07805
C          0.24264       -0.87088       -0.95042
C          0.07694       -2.33811       -0.54053
C         -0.47032       -2.62198        0.88133
N         -1.65026       -1.85082        1.35297
C         -1.90779       -2.15067        2.78284
C         -0.79053       -1.71921        3.69230
C         -0.39104       -0.26929        3.81014
C         -1.08708       -0.94618        4.95580
C         -2.86994       -2.13464        0.55655
C         -4.12783       -1.33058        0.78614
C         -3.34031       -1.13160       -0.46705
O         -0.69811       -3.01948       -1.53163
H          0.31556        0.15176        0.96316
H          1.14698        0.98784       -0.34689
H          1.88883       -0.44026        0.39149
H         -0.72217       -0.42806       -1.21065
H          0.81864       -0.84421       -1.88500
H          1.06974       -2.80429       -0.58624
H         -0.68740       -3.69589        0.96103
H          0.37155       -2.41774        1.55236
H         -2.82014       -1.63315        3.10174
H         -2.09691       -3.22274        2.92499
H         -0.01031       -2.46945        3.76052
H          0.66487       -0.04621        3.91107
H         -0.94596        0.46346        3.23506
H         -2.10852       -0.65110        5.16680
H         -0.50269       -1.17646        5.83957
H         -3.03380       -3.18838        0.33099
H         -5.07801       -1.84607        0.71358
H         -4.11682       -0.52164        1.50739
H         -2.82192       -0.18504       -0.56175
H         -3.76271       -1.50325       -1.39276
H         -1.54852       -2.55274       -1.58671

--Link1--
%chk=JID_3300.chk
%mem=8GB
%nprocshared=4
# B3LYP/6-311++G(d,p) empiricaldispersion=gd3bj scf=xqc pop=npa geom=check

CID_63632930_JID_3300_Energie_neutraal

0 1

--Link1--
%chk=JID_3300.chk
%mem=8GB
%nprocshared=4
# B3LYP/6-311++G(d,p) empiricaldispersion=gd3bj scf=xqc pop=npa geom=check

CID_63632930_JID_3300_Energie_kation

1 2

--Link1--
%chk=JID_3300.chk
%mem=8GB
%nprocshared=4
# B3LYP/6-311++G(d,p) empiricaldispersion=gd3bj scf=xqc pop=npa geom=check

CID_63632930_JID_3300_Energie_anion

-1 2
