%chk=JID_9693.chk
%mem=8GB
%nprocshared=4
# opt freq B3LYP/6-31G(d) empiricaldispersion=gd3bj scf=xqc

CID_61584071_JID_9693_neutraal

0 1
C          0.99282        0.07839       -0.06168
C          0.20114       -0.41419        1.15262
C          0.62619        0.32854        2.42348
N         -1.26319       -0.40094        0.94171
C         -1.81468       -1.59226        0.27051
C         -1.95973       -2.83999        1.13360
O         -2.33372       -3.93221        0.73182
O         -1.66932       -2.67395        2.43913
C         -1.93940        0.81294        0.86646
O         -1.34872        1.88019        0.71779
N         -3.32690        0.76187        0.99535
C         -3.93527       -0.03163        2.08375
C         -3.30317        0.17481        3.46626
O         -3.37690        1.53544        3.87381
C         -4.15151        1.85702        0.46443
C         -4.07739        3.19728        1.19587
C         -4.60113        4.22730        0.19321
C         -4.65813        3.52865       -1.16485
C         -3.87249        2.23541       -0.99313
H          0.82474        1.14081       -0.26095
H          0.71674       -0.47454       -0.96509
H          2.06730       -0.06107        0.09926
H          0.48070       -1.46328        1.31387
H          0.44404        1.40528        2.35997
H          0.08492       -0.05160        3.29541
H          1.69660        0.18800        2.60909
H         -2.79494       -1.37017       -0.16167
H         -1.14771       -1.84149       -0.56213
H         -1.80407       -3.56229        2.83117
H         -4.99871        0.22673        2.14643
H         -3.89712       -1.08831        1.81530
H         -3.84479       -0.42323        4.20597
H         -2.25745       -0.13709        3.49681
H         -2.79390        2.03018        3.26713
H         -5.19379        1.50796        0.48986
H         -4.67506        3.19341        2.11292
H         -3.05383        3.46050        1.47981
H         -3.93886        5.09926        0.16088
H         -5.59622        4.58511        0.47979
H         -4.25276        4.15311       -1.96677
H         -5.70076        3.30160       -1.41777
H         -2.81150        2.42430       -1.18384
H         -4.20094        1.45876       -1.69116

--Link1--
%chk=JID_9693.chk
%mem=8GB
%nprocshared=4
# B3LYP/6-311++G(d,p) empiricaldispersion=gd3bj scf=xqc pop=npa geom=check

CID_61584071_JID_9693_Energie_neutraal

0 1

--Link1--
%chk=JID_9693.chk
%mem=8GB
%nprocshared=4
# B3LYP/6-311++G(d,p) empiricaldispersion=gd3bj scf=xqc pop=npa geom=check

CID_61584071_JID_9693_Energie_kation

1 2

--Link1--
%chk=JID_9693.chk
%mem=8GB
%nprocshared=4
# B3LYP/6-311++G(d,p) empiricaldispersion=gd3bj scf=xqc pop=npa geom=check

CID_61584071_JID_9693_Energie_anion

-1 2
