%chk=JID_268.chk
%mem=8GB
%nprocshared=4
# opt freq B3LYP/6-31G(d) empiricaldispersion=gd3bj scf=xqc

CID_103455689_JID_268_neutraal

0 1
C          0.94451       -0.03754       -0.07424
O          0.41245        0.94890        0.80770
C          0.93577        0.82210        2.12434
C          0.23209       -0.23300        2.97235
O          0.87727       -0.99671        3.69632
C         -1.30528       -0.21622        2.97574
C         -1.85359        0.97893        3.71339
C         -2.12062        2.30858        3.04636
C         -3.27206        1.45009        3.49703
O         -1.86769       -0.32262        1.67409
H          0.47592        0.09239       -1.05338
H          0.72101       -1.04497        0.28925
H          2.02516        0.09401       -0.18445
H          2.01114        0.61126        2.09384
H          0.80775        1.78458        2.62947
H         -1.62470       -1.11634        3.51404
H         -1.49178        0.99779        4.73787
H         -1.91343        3.21133        3.61166
H         -1.96653        2.41975        1.97922
H         -3.87398        0.96479        2.73569
H         -3.83928        1.77064        4.36412
H         -1.48386        0.39897        1.13917

--Link1--
%chk=JID_268.chk
%mem=8GB
%nprocshared=4
# B3LYP/6-311++G(d,p) empiricaldispersion=gd3bj scf=xqc pop=npa geom=check

CID_103455689_JID_268_Energie_neutraal

0 1

--Link1--
%chk=JID_268.chk
%mem=8GB
%nprocshared=4
# B3LYP/6-311++G(d,p) empiricaldispersion=gd3bj scf=xqc pop=npa geom=check

CID_103455689_JID_268_Energie_kation

1 2

--Link1--
%chk=JID_268.chk
%mem=8GB
%nprocshared=4
# B3LYP/6-311++G(d,p) empiricaldispersion=gd3bj scf=xqc pop=npa geom=check

CID_103455689_JID_268_Energie_anion

-1 2
