%chk=JID_9077.chk
%mem=8GB
%nprocshared=4
# opt freq B3LYP/6-31G(d) empiricaldispersion=gd3bj scf=xqc

CID_65166821_JID_9077_neutraal

0 1
C          0.98606        0.03545       -0.09246
C          0.45103        0.22049       -1.51492
C          1.06563       -0.81055       -2.46438
C         -1.06535        0.17496       -1.57302
C         -1.77123        1.23126       -2.16264
C         -3.16674        1.19923       -2.25842
C         -3.89923        0.10757       -1.77004
C         -3.18891       -0.94375       -1.17006
C         -1.79336       -0.91418       -1.07769
C         -5.41467        0.03417       -1.85234
C         -6.13422        0.69032       -0.65045
C         -5.86258        2.16457       -0.32095
C         -6.40073        3.24027       -1.26544
C         -7.89230        3.55245       -1.13544
C         -8.84737        2.49843       -1.66741
C        -10.05800        3.32540       -2.02368
C         -9.42714        4.58479       -2.57158
O         -8.17128        4.74587       -1.89889
N         -5.93201        0.44473       -3.15664
H          0.77221       -0.96382        0.30157
H          0.54137        0.76726        0.59106
H          2.07262        0.17330       -0.07040
H          0.78195        1.21253       -1.85042
H          0.81318       -1.83559       -2.17115
H          0.70943       -0.66032       -3.48972
H          2.15753       -0.72454       -2.47333
H         -1.23982        2.09183       -2.56363
H         -3.67040        2.04118       -2.72453
H         -3.71938       -1.80906       -0.77778
H         -1.28219       -1.75930       -0.62323
H         -5.67369       -1.03255       -1.79747
H         -7.21147        0.52402       -0.74689
H         -5.84320        0.11934        0.24356
H         -6.27008        2.36158        0.67979
H         -4.78107        2.30868       -0.21712
H         -5.86062        4.16976       -1.03449
H         -6.14470        3.04052       -2.30788
H         -8.13464        3.78748       -0.09161
H         -8.45022        2.02870       -2.57357
H         -9.07717        1.71808       -0.93812
H        -10.72884        2.83902       -2.73668
H        -10.63011        3.55630       -1.11732
H         -9.22102        4.49188       -3.64310
H        -10.04836        5.47042       -2.41141
H         -6.94723        0.39822       -3.15439
H         -5.67992        1.40573       -3.35866

--Link1--
%chk=JID_9077.chk
%mem=8GB
%nprocshared=4
# B3LYP/6-311++G(d,p) empiricaldispersion=gd3bj scf=xqc pop=npa geom=check

CID_65166821_JID_9077_Energie_neutraal

0 1

--Link1--
%chk=JID_9077.chk
%mem=8GB
%nprocshared=4
# B3LYP/6-311++G(d,p) empiricaldispersion=gd3bj scf=xqc pop=npa geom=check

CID_65166821_JID_9077_Energie_kation

1 2

--Link1--
%chk=JID_9077.chk
%mem=8GB
%nprocshared=4
# B3LYP/6-311++G(d,p) empiricaldispersion=gd3bj scf=xqc pop=npa geom=check

CID_65166821_JID_9077_Energie_anion

-1 2
