%chk=JID_3782.chk
%mem=8GB
%nprocshared=4
# opt freq B3LYP/6-31G(d) empiricaldispersion=gd3bj scf=xqc

CID_149777476_JID_3782_neutraal

0 1
C          1.04432       -0.01987        0.08741
C          1.50431        0.72108        1.33219
N          1.79673        2.12422        1.05558
C          0.72096        3.13031        1.18698
C          0.52379        3.62673        2.66447
N          1.81087        4.08623        3.20298
C          1.91024        3.99519        4.65085
N         -0.52381        4.65199        2.69094
C         -1.31360        4.66664        3.91449
C         -0.07977        5.99626        2.33076
N          3.04680        2.39687        0.53531
N          3.31661        3.56432        0.17447
N          3.58205        4.62143       -0.16283
H          0.13418        0.42813       -0.32416
H          0.83451       -1.06745        0.32373
H          1.81207        0.00845       -0.69276
H          0.74252        0.66613        2.11666
H          2.41440        0.25585        1.72774
H          0.92738        3.96653        0.51247
H         -0.20671        2.66946        0.82486
H          0.19458        2.73707        3.21844
H          2.51761        3.46073        2.80489
H          1.62832        3.00524        5.02303
H          2.94889        4.17440        4.94829
H          1.31051        4.75887        5.14951
H         -0.76752        5.05819        4.77625
H         -2.20523        5.29002        3.77963
H         -1.67811        3.66331        4.16103
H          0.55854        6.44894        3.09783
H          0.46232        6.00378        1.37975
H         -0.94617        6.65336        2.19151

--Link1--
%chk=JID_3782.chk
%mem=8GB
%nprocshared=4
# B3LYP/6-311++G(d,p) empiricaldispersion=gd3bj scf=xqc pop=npa geom=check

CID_149777476_JID_3782_Energie_neutraal

0 1

--Link1--
%chk=JID_3782.chk
%mem=8GB
%nprocshared=4
# B3LYP/6-311++G(d,p) empiricaldispersion=gd3bj scf=xqc pop=npa geom=check

CID_149777476_JID_3782_Energie_kation

1 2

--Link1--
%chk=JID_3782.chk
%mem=8GB
%nprocshared=4
# B3LYP/6-311++G(d,p) empiricaldispersion=gd3bj scf=xqc pop=npa geom=check

CID_149777476_JID_3782_Energie_anion

-1 2
