%chk=JID_8354.chk
%mem=8GB
%nprocshared=4
# opt freq B3LYP/6-31G(d) empiricaldispersion=gd3bj scf=xqc

CID_3792516_JID_8354_neutraal

0 1
C          1.05637        0.07543        0.03366
C          0.13409        0.69758        1.05062
O         -0.97772        1.10140        0.70340
N          0.58136        0.80042        2.36017
C          1.95499        0.49976        2.79237
C          2.08101       -0.79825        3.59602
O          1.96337       -1.92212        2.71879
C          2.20099       -3.16117        3.39586
C          0.89594       -3.93274        3.63953
N         -0.01257       -3.33977        4.62871
C         -1.38007       -3.03343        4.18134
C         -1.49527       -1.72646        3.39084
O         -1.38176       -0.61187        4.28061
C         -1.62011        0.63446        3.61716
C         -0.31454        1.39996        3.35661
C          0.41791       -3.24832        5.94482
O          1.52705       -3.65124        6.30164
C         -0.52081       -2.64354        6.95743
H          0.50087       -0.10170       -0.89280
H          1.43010       -0.88875        0.38249
H          1.88321        0.75498       -0.18723
H          2.29634        1.34638        3.39967
H          2.61747        0.45114        1.92427
H          3.07492       -0.81696        4.05859
H          1.32607       -0.85166        4.38477
H          2.78900       -3.01620        4.30753
H          2.82002       -3.76036        2.71856
H          1.13794       -4.94311        3.99002
H          0.36036       -4.02887        2.68803
H         -2.05408       -2.99378        5.04093
H         -1.71409       -3.87291        3.56024
H         -2.48481       -1.70044        2.91940
H         -0.73344       -1.66837        2.60947
H         -2.22325        1.23323        4.30905
H         -2.22522        0.50085        2.71503
H          0.23134        1.49598        4.30225
H         -0.55569        2.41060        3.00633
H         -0.89287       -1.67574        6.61674
H         -1.34842       -3.32883        7.15684
H          0.02089       -2.47781        7.89410

--Link1--
%chk=JID_8354.chk
%mem=8GB
%nprocshared=4
# B3LYP/6-311++G(d,p) empiricaldispersion=gd3bj scf=xqc pop=npa geom=check

CID_3792516_JID_8354_Energie_neutraal

0 1

--Link1--
%chk=JID_8354.chk
%mem=8GB
%nprocshared=4
# B3LYP/6-311++G(d,p) empiricaldispersion=gd3bj scf=xqc pop=npa geom=check

CID_3792516_JID_8354_Energie_kation

1 2

--Link1--
%chk=JID_8354.chk
%mem=8GB
%nprocshared=4
# B3LYP/6-311++G(d,p) empiricaldispersion=gd3bj scf=xqc pop=npa geom=check

CID_3792516_JID_8354_Energie_anion

-1 2
