%chk=JID_4717.chk
%mem=8GB
%nprocshared=4
# opt freq B3LYP/6-31G(d) empiricaldispersion=gd3bj scf=xqc

CID_82161623_JID_4717_neutraal

0 1
C          0.92943       -0.04257       -0.05663
C          0.42775        0.60034       -1.33478
C          0.89320       -0.16153       -2.56142
O          0.09917       -0.85443       -3.20505
C          2.37084       -0.16465       -2.90611
C          3.03358        1.19023       -2.90430
C          4.16977        1.40980       -2.10987
C          4.79522        2.65907       -2.08921
C          4.29441        3.70608       -2.86032
C          3.17373        3.50204       -3.66164
C          2.56582        2.24665       -3.69816
O          1.44342        2.10091       -4.46652
C          1.76530        1.60694       -5.77344
C          1.25654        2.59484       -6.80681
H          0.64089       -1.09775       -0.00822
H          0.51127        0.46864        0.81593
H          2.02043        0.00792        0.01339
H         -0.66845        0.60664       -1.33778
H          0.74563        1.64452       -1.40009
H          2.86484       -0.84111       -2.19872
H          2.49662       -0.60914       -3.90073
H          4.57663        0.61027       -1.49394
H          5.67153        2.81691       -1.46505
H          4.77414        4.68092       -2.83446
H          2.77215        4.31859       -4.25498
H          2.84016        1.43455       -5.91738
H          1.25268        0.64714       -5.89961
H          1.75390        3.56347       -6.69217
H          1.43710        2.22539       -7.82016
H          0.18323        2.76979       -6.67958

--Link1--
%chk=JID_4717.chk
%mem=8GB
%nprocshared=4
# B3LYP/6-311++G(d,p) empiricaldispersion=gd3bj scf=xqc pop=npa geom=check

CID_82161623_JID_4717_Energie_neutraal

0 1

--Link1--
%chk=JID_4717.chk
%mem=8GB
%nprocshared=4
# B3LYP/6-311++G(d,p) empiricaldispersion=gd3bj scf=xqc pop=npa geom=check

CID_82161623_JID_4717_Energie_kation

1 2

--Link1--
%chk=JID_4717.chk
%mem=8GB
%nprocshared=4
# B3LYP/6-311++G(d,p) empiricaldispersion=gd3bj scf=xqc pop=npa geom=check

CID_82161623_JID_4717_Energie_anion

-1 2
