%chk=JID_9799.chk
%mem=8GB
%nprocshared=4
# opt freq B3LYP/6-31G(d) empiricaldispersion=gd3bj scf=xqc

CID_65846034_JID_9799_neutraal

0 1
C         -2.48100        0.63200       -0.02500
C         -1.12322        0.04619        0.06958
N         -0.07408        0.82091        0.36389
N          0.97461       -0.02377        0.36895
C          0.62860       -1.31784        0.07560
C         -0.73660       -1.29736       -0.12373
C          1.60595       -2.43907        0.00524
N          2.42515       -2.38966       -1.19758
C          3.80969       -2.29659       -1.13897
C          4.49577       -1.68324       -2.19269
C          5.89660       -1.58445       -2.20897
C          6.65463       -2.12028       -1.17445
C          5.97839       -2.78495       -0.14465
C          4.57955       -2.87761       -0.13205
N          8.05643       -2.08893       -1.07705
C          9.04688       -1.47535       -1.78120
O         10.21553       -1.71318       -1.46049
C          8.75309       -0.51839       -2.89682
C          2.29450        0.50399        0.62817
H         -2.72514        1.19104        0.88410
H         -2.54453        1.31362       -0.87921
H         -3.23850       -0.14750       -0.15519
H         -1.36837       -2.13756       -0.37665
H          2.19287       -2.44860        0.93007
H          1.05585       -3.38789       -0.00870
H          1.99798       -1.83168       -1.93210
H          3.94056       -1.26494       -3.03002
H          6.33541       -1.10532       -3.07239
H          6.52862       -3.25062        0.67021
H          4.11496       -3.43869        0.67349
H          8.45941       -2.63273       -0.32144
H          8.39981       -1.06193       -3.77580
H          8.03856        0.24290       -2.57572
H          9.67681        0.00131       -3.17244
H          2.80150        0.63868       -0.32993
H          2.20327        1.46510        1.14157
H          2.84247       -0.19260        1.26590

--Link1--
%chk=JID_9799.chk
%mem=8GB
%nprocshared=4
# B3LYP/6-311++G(d,p) empiricaldispersion=gd3bj scf=xqc pop=npa geom=check

CID_65846034_JID_9799_Energie_neutraal

0 1

--Link1--
%chk=JID_9799.chk
%mem=8GB
%nprocshared=4
# B3LYP/6-311++G(d,p) empiricaldispersion=gd3bj scf=xqc pop=npa geom=check

CID_65846034_JID_9799_Energie_kation

1 2

--Link1--
%chk=JID_9799.chk
%mem=8GB
%nprocshared=4
# B3LYP/6-311++G(d,p) empiricaldispersion=gd3bj scf=xqc pop=npa geom=check

CID_65846034_JID_9799_Energie_anion

-1 2
