%chk=JID_7114.chk
%mem=8GB
%nprocshared=4
# opt freq B3LYP/6-31G(d) empiricaldispersion=gd3bj scf=xqc

CID_58135832_JID_7114_neutraal

0 1
C         -2.38400        0.00700       -0.11600
N         -0.92965       -0.09530        0.01336
C         -0.43799       -1.27894       -0.70055
C          1.08614       -1.41742       -0.62616
C          1.86809       -0.14339       -1.01769
C          1.22032        1.06431       -0.30984
C         -0.29296        1.13399       -0.46998
N          2.20197       -0.01699       -2.46783
C          1.10024       -0.25812       -3.40209
C          1.53288       -0.23903       -4.86983
C          2.23704        1.05831       -5.22296
C          3.41030        1.26379       -4.28003
C          2.96238        1.22259       -2.80913
C          4.21858        1.40313       -1.94329
O          4.43086        2.39767       -1.25804
O          5.06447        0.33746       -2.04513
C          6.24876        0.45457       -1.25887
H         -2.70066        0.13239       -1.15789
H         -2.87008       -0.88868        0.28668
H         -2.76322        0.85587        0.46390
H         -0.87384       -2.17804       -0.24624
H         -0.78160       -1.26651       -1.73904
H          1.41721       -2.27536       -1.22408
H          1.34978       -1.66751        0.41179
H          2.84588       -0.27730       -0.53479
H          1.66545        2.01507       -0.61521
H          1.44672        0.98434        0.76376
H         -0.56326        1.34590       -1.50936
H         -0.65219        1.98283        0.12571
H          0.30199        0.47700       -3.26579
H          0.68067       -1.25420       -3.23995
H          0.65449       -0.36963       -5.51236
H          2.20071       -1.08735       -5.06709
H          2.58707        1.02754       -6.26034
H          1.53755        1.89895       -5.14017
H          4.16677        0.49232       -4.47474
H          3.88928        2.22670       -4.49686
H          2.31998        2.09645       -2.64198
H          6.83767        1.31960       -1.57956
H          5.99832        0.52715       -0.19598
H          6.84795       -0.44714       -1.41255

--Link1--
%chk=JID_7114.chk
%mem=8GB
%nprocshared=4
# B3LYP/6-311++G(d,p) empiricaldispersion=gd3bj scf=xqc pop=npa geom=check

CID_58135832_JID_7114_Energie_neutraal

0 1

--Link1--
%chk=JID_7114.chk
%mem=8GB
%nprocshared=4
# B3LYP/6-311++G(d,p) empiricaldispersion=gd3bj scf=xqc pop=npa geom=check

CID_58135832_JID_7114_Energie_kation

1 2

--Link1--
%chk=JID_7114.chk
%mem=8GB
%nprocshared=4
# B3LYP/6-311++G(d,p) empiricaldispersion=gd3bj scf=xqc pop=npa geom=check

CID_58135832_JID_7114_Energie_anion

-1 2
