%chk=JID_6633.chk
%mem=8GB
%nprocshared=4
# opt freq B3LYP/6-31G(d) empiricaldispersion=gd3bj scf=xqc

CID_122096624_JID_6633_neutraal

0 1
C          0.95342       -0.02813        0.08390
C          0.09001       -1.19771       -0.43447
C         -0.24294       -2.08949        0.78540
C         -1.27136       -0.68318       -1.00093
C         -1.23465        0.43292       -2.05399
N         -1.00431       -0.12369       -3.37526
C         -0.17058        0.35199       -4.21509
N          0.68157        1.39883       -4.02715
N          0.04209       -0.11724       -5.48313
C         -0.82503       -1.05777       -6.12980
C         -1.14935       -2.37438       -5.40005
C         -2.57389       -2.25686       -5.99113
C         -2.33224       -0.73575       -6.12869
C          0.87939       -1.93138       -1.51343
C          1.87208       -3.03235       -1.21821
C          0.58350       -3.35341       -1.92466
H          0.39478        0.59870        0.78755
H          1.31259        0.60875       -0.73124
H          1.84518       -0.40144        0.60151
H         -0.79531       -1.52347        1.54521
H         -0.86441       -2.94646        0.50672
H          0.65942       -2.47297        1.27223
H         -1.84227       -1.53345       -1.39843
H         -1.85727       -0.29095       -0.15776
H         -2.22881        0.89677       -2.07715
H         -0.55123        1.22924       -1.75732
H          1.60026        1.21091       -4.41196
H          0.77219        1.69148       -3.06465
H          0.29978        0.63869       -6.10700
H         -0.44848       -1.24764       -7.14528
H         -0.58104       -3.24626       -5.73790
H         -1.13819       -2.36588       -4.30806
H         -3.38946       -2.54881       -5.32474
H         -2.69484       -2.77098       -6.95162
H         -2.71597       -0.15779       -5.28266
H         -2.71497       -0.28828       -7.05074
H          1.16051       -1.25638       -2.31697
H          2.78574       -3.05518       -1.80278
H          1.99908       -3.40121       -0.20912
H         -0.16863       -3.92050       -1.39194
H          0.62875       -3.58634       -2.98318

--Link1--
%chk=JID_6633.chk
%mem=8GB
%nprocshared=4
# B3LYP/6-311++G(d,p) empiricaldispersion=gd3bj scf=xqc pop=npa geom=check

CID_122096624_JID_6633_Energie_neutraal

0 1

--Link1--
%chk=JID_6633.chk
%mem=8GB
%nprocshared=4
# B3LYP/6-311++G(d,p) empiricaldispersion=gd3bj scf=xqc pop=npa geom=check

CID_122096624_JID_6633_Energie_kation

1 2

--Link1--
%chk=JID_6633.chk
%mem=8GB
%nprocshared=4
# B3LYP/6-311++G(d,p) empiricaldispersion=gd3bj scf=xqc pop=npa geom=check

CID_122096624_JID_6633_Energie_anion

-1 2
