%chk=JID_10058.chk
%mem=8GB
%nprocshared=4
# opt freq B3LYP/6-31G(d) empiricaldispersion=gd3bj scf=xqc

CID_79005848_JID_10058_neutraal

0 1
C          2.49600       -0.00700       -0.12600
C          0.96946        0.04442       -0.07246
C          0.42676        0.99638       -1.13723
C         -1.10023        1.06072       -1.16658
C         -1.84902       -0.26272       -0.98540
C         -1.13399       -1.34170       -0.16199
C          0.38198       -1.35078       -0.27131
C         -2.58862       -0.86618       -2.18217
O         -3.74025       -1.29186       -2.01641
N         -2.07296       -1.05945       -3.41219
C         -0.86280       -0.64058       -4.07501
C          0.20760       -1.68805       -4.03056
C          1.57560       -1.48278       -3.99048
C          2.31224       -2.70134       -3.96782
C          1.49010       -3.80806       -4.01803
S         -0.15577       -3.36521       -4.11470
S          1.82666       -5.54320       -4.01265
O          1.31641       -6.06655       -2.76834
O          1.44525       -6.04966       -5.30914
N          3.49972       -5.72573       -3.92789
H          2.85076       -0.37922       -1.09303
H          2.92335        0.98900        0.03072
H          2.88953       -0.66642        0.65474
H          0.67678        0.41707        0.91790
H          0.81656        2.00730       -0.96209
H          0.81224        0.70027       -2.11491
H         -1.43823        1.58595       -2.06693
H         -1.39251        1.71367       -0.33110
H         -2.70749        0.03202       -0.35580
H         -1.51748       -2.34022       -0.40535
H         -1.38366       -1.17720        0.89556
H          0.67824       -1.75415       -1.24229
H          0.78707       -2.03729        0.48245
H         -2.72722       -1.56824       -3.99477
H         -1.12755       -0.45666       -5.12311
H         -0.52199        0.30737       -3.66748
H          2.03098       -0.49936       -3.96388
H          3.39243       -2.77062       -3.91782
H          3.72357       -6.22311       -3.06364
H          3.80753       -6.24284       -4.75375

--Link1--
%chk=JID_10058.chk
%mem=8GB
%nprocshared=4
# B3LYP/6-311++G(d,p) empiricaldispersion=gd3bj scf=xqc pop=npa geom=check

CID_79005848_JID_10058_Energie_neutraal

0 1

--Link1--
%chk=JID_10058.chk
%mem=8GB
%nprocshared=4
# B3LYP/6-311++G(d,p) empiricaldispersion=gd3bj scf=xqc pop=npa geom=check

CID_79005848_JID_10058_Energie_kation

1 2

--Link1--
%chk=JID_10058.chk
%mem=8GB
%nprocshared=4
# B3LYP/6-311++G(d,p) empiricaldispersion=gd3bj scf=xqc pop=npa geom=check

CID_79005848_JID_10058_Energie_anion

-1 2
