%chk=JID_8962.chk
%mem=8GB
%nprocshared=4
# opt freq B3LYP/6-31G(d) empiricaldispersion=gd3bj scf=xqc

CID_66164542_JID_8962_neutraal

0 1
C          1.07387       -0.03967       -0.05450
C          0.09327        0.24331       -1.18413
C          0.00795       -0.90127       -2.19579
N         -0.58387       -2.08063       -1.57041
C         -0.84978       -3.14203       -2.43738
N         -2.11207       -3.59284       -2.42657
C         -2.39139       -4.62132       -3.24169
N         -1.51517       -5.24053       -4.04790
C         -0.25962       -4.76841       -4.01294
C          0.13013       -3.71566       -3.21995
C         -3.74114       -5.16146       -3.22928
C         -4.17393       -6.39749       -3.68363
N         -5.50787       -6.59271       -3.45417
C         -5.91007       -5.48870       -2.87407
N         -4.89804       -4.56912       -2.75198
C         -5.06542       -3.22176       -2.21192
C         -6.35954       -2.54095       -2.67536
C         -4.97644       -3.23036       -0.68622
H          0.76040       -0.90349        0.53981
H          1.13553        0.82384        0.61543
H          2.07683       -0.23659       -0.44640
H         -0.89708        0.44807       -0.76026
H          0.41390        1.15220       -1.70669
H         -0.61311       -0.57549       -3.03975
H          1.01160       -1.11973       -2.57857
H         -1.48003       -1.87145       -1.13185
H          0.44993       -5.28178       -4.65481
H          1.15715       -3.38063       -3.19967
H         -3.56848       -7.16620       -4.14826
H         -6.92069       -5.30258       -2.53518
H         -4.25595       -2.60880       -2.61776
H         -7.24931       -3.01602       -2.24887
H         -6.36913       -1.48985       -2.36661
H         -6.44954       -2.57127       -3.76677
H         -4.03828       -3.68002       -0.34416
H         -5.02452       -2.21096       -0.28912
H         -5.79701       -3.80532       -0.24251

--Link1--
%chk=JID_8962.chk
%mem=8GB
%nprocshared=4
# B3LYP/6-311++G(d,p) empiricaldispersion=gd3bj scf=xqc pop=npa geom=check

CID_66164542_JID_8962_Energie_neutraal

0 1

--Link1--
%chk=JID_8962.chk
%mem=8GB
%nprocshared=4
# B3LYP/6-311++G(d,p) empiricaldispersion=gd3bj scf=xqc pop=npa geom=check

CID_66164542_JID_8962_Energie_kation

1 2

--Link1--
%chk=JID_8962.chk
%mem=8GB
%nprocshared=4
# B3LYP/6-311++G(d,p) empiricaldispersion=gd3bj scf=xqc pop=npa geom=check

CID_66164542_JID_8962_Energie_anion

-1 2
