%chk=JID_6992.chk
%mem=8GB
%nprocshared=4
# opt freq B3LYP/6-31G(d) empiricaldispersion=gd3bj scf=xqc

CID_105779509_JID_6992_neutraal

0 1
C          0.90372       -0.01052        0.02491
C         -0.35904        0.75614        0.38484
C         -0.35871        2.19643       -0.12896
C         -0.43823        2.28071       -1.62603
C         -0.22539        3.61164       -2.29678
C          0.75791        2.49895       -2.52538
N          2.11531        2.59227       -1.97743
C          3.10889        3.07257       -2.94784
C          3.16563        4.60386       -3.09785
O          4.24145        5.21646       -2.37856
C          4.14522        5.13068       -0.96733
C          2.90964        5.74425       -0.31981
O          2.04749        5.08878        0.25266
O          2.89497        7.09417       -0.49281
C          1.76959        7.78721        0.06488
C          0.62997        7.82359       -0.93542
H          0.99413       -0.14582       -1.05691
H          0.88231       -1.00481        0.48257
H          1.79654        0.50851        0.38747
H         -1.23111        0.21712       -0.00357
H         -0.45558        0.77512        1.47693
H         -1.24227        2.70251        0.27972
H          0.50956        2.73227        0.26840
H         -1.24825        1.67079       -2.01444
H         -0.88578        3.87769       -3.11404
H          0.06276        4.45079       -1.67575
H          0.69695        1.97310       -3.47818
H          2.13083        3.15896       -1.12792
H          4.09108        2.69730       -2.63930
H          2.90117        2.62102       -3.92566
H          3.35367        4.83148       -4.15344
H          2.21821        5.09335       -2.84948
H          4.23176        4.08746       -0.64472
H          5.01881        5.63897       -0.54281
H          1.45505        7.33931        1.01450
H          2.09917        8.80797        0.28433
H          0.27732        6.81390       -1.16455
H         -0.20999        8.40557       -0.54585
H          0.96049        8.26727       -1.88023

--Link1--
%chk=JID_6992.chk
%mem=8GB
%nprocshared=4
# B3LYP/6-311++G(d,p) empiricaldispersion=gd3bj scf=xqc pop=npa geom=check

CID_105779509_JID_6992_Energie_neutraal

0 1

--Link1--
%chk=JID_6992.chk
%mem=8GB
%nprocshared=4
# B3LYP/6-311++G(d,p) empiricaldispersion=gd3bj scf=xqc pop=npa geom=check

CID_105779509_JID_6992_Energie_kation

1 2

--Link1--
%chk=JID_6992.chk
%mem=8GB
%nprocshared=4
# B3LYP/6-311++G(d,p) empiricaldispersion=gd3bj scf=xqc pop=npa geom=check

CID_105779509_JID_6992_Energie_anion

-1 2
