%chk=JID_7911.chk
%mem=8GB
%nprocshared=4
# opt freq B3LYP/6-31G(d) empiricaldispersion=gd3bj scf=xqc

CID_55032574_JID_7911_neutraal

0 1
C          1.07783        0.03636       -0.05120
C          0.67065       -0.08886       -1.52296
C          1.40963       -1.21988       -2.19938
C          1.32547       -2.56350       -1.86914
S          2.29082       -3.56224       -2.86512
C          2.87461       -2.21728       -3.73834
C          2.33654       -1.03449       -3.28321
N         -0.77942       -0.29148       -1.58012
C         -1.41202        0.06938       -2.84691
C         -1.29354       -0.97138       -3.93544
C         -1.83734       -2.25519       -3.76465
C         -1.70437       -3.22507       -4.76526
C         -1.04308       -2.91039       -5.95538
C         -0.51869       -1.63208       -6.14430
C         -0.64504       -0.66874       -5.14165
C         -2.24402       -4.53806       -4.56680
N         -2.68609       -5.59867       -4.40263
H          0.82355       -0.86116        0.52494
H          0.57846        0.89028        0.42059
H          2.15911        0.19067        0.04037
H          0.93070        0.86168       -2.00669
H          0.72889       -3.01586       -1.08904
H          3.58245       -2.35669       -4.54358
H          2.58464       -0.07295       -3.71627
H         -1.01706       -1.24185       -1.31315
H         -2.48268        0.21796       -2.65735
H         -1.04722        1.04422       -3.19386
H         -2.35857       -2.50204       -2.84122
H         -0.93131       -3.65636       -6.73967
H         -0.00380       -1.38739       -7.07020
H         -0.21918        0.31953       -5.30277

--Link1--
%chk=JID_7911.chk
%mem=8GB
%nprocshared=4
# B3LYP/6-311++G(d,p) empiricaldispersion=gd3bj scf=xqc pop=npa geom=check

CID_55032574_JID_7911_Energie_neutraal

0 1

--Link1--
%chk=JID_7911.chk
%mem=8GB
%nprocshared=4
# B3LYP/6-311++G(d,p) empiricaldispersion=gd3bj scf=xqc pop=npa geom=check

CID_55032574_JID_7911_Energie_kation

1 2

--Link1--
%chk=JID_7911.chk
%mem=8GB
%nprocshared=4
# B3LYP/6-311++G(d,p) empiricaldispersion=gd3bj scf=xqc pop=npa geom=check

CID_55032574_JID_7911_Energie_anion

-1 2
