%chk=JID_7832.chk
%mem=8GB
%nprocshared=4
# opt freq B3LYP/6-31G(d) empiricaldispersion=gd3bj scf=xqc

CID_70380530_JID_7832_neutraal

0 1
C          0.99397       -0.07045        0.07071
C          0.38020       -0.40772        1.42052
C          0.67906        0.62893        2.50625
C          0.21030        2.05926        2.21217
C         -1.29680        2.21409        1.93920
C         -2.22749        1.75809        3.07433
C         -1.96433        2.39991        4.43001
C         -1.65983        3.62631        1.49572
O         -2.50115        3.85679        0.63125
O         -0.95695        4.57100        2.22995
C         -1.23271        5.88231        1.84319
C         -0.40396        6.49793        0.90729
C         -0.64739        7.82386        0.55314
C         -1.70303        8.52205        1.14481
C         -2.51521        7.89857        2.09565
C         -2.27667        6.57292        2.45512
N         -0.77618        4.02832       -1.81509
H          0.54444        0.82828       -0.36168
H          0.83007       -0.89342       -0.63238
H          2.07315        0.08962        0.15891
H         -0.70085       -0.54288        1.30765
H          0.77738       -1.37514        1.75125
H          0.23481        0.28584        3.44798
H          1.76286        0.65450        2.67741
H          0.50823        2.69001        3.05897
H          0.77069        2.45283        1.35430
H         -1.52811        1.59431        1.06214
H         -3.26769        1.96707        2.79351
H         -2.15501        0.66977        3.18615
H         -2.07410        3.48705        4.38891
H         -2.68447        2.02346        5.16414
H         -0.96348        2.16394        4.80203
H          0.41677        5.95010        0.45327
H         -0.01461        8.31458       -0.18163
H         -1.89164        9.55597        0.86644
H         -3.33255        8.44767        2.55572
H         -2.90135        6.08554        3.19673
H         -1.52392        4.04837       -1.10824
H         -0.78768        4.96727       -2.21294
H         -1.13800        3.41900       -2.54797

--Link1--
%chk=JID_7832.chk
%mem=8GB
%nprocshared=4
# B3LYP/6-311++G(d,p) empiricaldispersion=gd3bj scf=xqc pop=npa geom=check

CID_70380530_JID_7832_Energie_neutraal

0 1

--Link1--
%chk=JID_7832.chk
%mem=8GB
%nprocshared=4
# B3LYP/6-311++G(d,p) empiricaldispersion=gd3bj scf=xqc pop=npa geom=check

CID_70380530_JID_7832_Energie_kation

1 2

--Link1--
%chk=JID_7832.chk
%mem=8GB
%nprocshared=4
# B3LYP/6-311++G(d,p) empiricaldispersion=gd3bj scf=xqc pop=npa geom=check

CID_70380530_JID_7832_Energie_anion

-1 2
