%chk=JID_8437.chk
%mem=8GB
%nprocshared=4
# opt freq B3LYP/6-31G(d) empiricaldispersion=gd3bj scf=xqc

CID_113671772_JID_8437_neutraal

0 1
C          1.69800        0.03400       -0.78800
C          0.82819       -0.12793        0.48940
C         -0.20452       -1.25004        0.26942
C         -1.28480       -0.63454       -0.61987
C         -1.22715        0.87276       -0.37684
C         -0.09725        1.09955        0.62799
C          1.78281       -0.32889        1.71720
C          1.14356       -0.27633        3.10078
C          1.24203        0.90015        3.86280
C          0.67397        0.99113        5.14819
C         -0.00954       -0.10914        5.70212
C         -0.09841       -1.26741        4.94592
C          0.46659       -1.36232        3.66772
N         -0.56795       -0.07086        6.92549
C         -0.45922        1.07345        7.63539
C          0.19049        2.20454        7.17979
C          0.76532        2.16037        5.91556
N          2.60346       -1.54020        1.57368
H          2.26537       -0.87775       -1.00402
H          1.10281        0.25525       -1.67967
H          2.41304        0.85605       -0.66883
H          0.22633       -2.14769       -0.18602
H         -0.67574       -1.55124        1.20906
H         -2.27241       -1.04514       -0.38565
H         -1.08573       -0.85280       -1.67532
H         -2.17836        1.25622        0.00686
H         -1.02209        1.39857       -1.31622
H         -0.54513        1.15617        1.62580
H          0.42241        2.04646        0.44775
H          2.50453        0.49945        1.68402
H          1.76606        1.76160        3.45143
H         -0.62174       -2.12444        5.36365
H          0.36578       -2.30185        3.13088
H         -0.92613        1.05300        8.61608
H          0.24818        3.09670        7.79251
H          1.28257        3.03654        5.53366
H          3.19417       -1.63624        2.39915
H          2.00512       -2.36184        1.55013

--Link1--
%chk=JID_8437.chk
%mem=8GB
%nprocshared=4
# B3LYP/6-311++G(d,p) empiricaldispersion=gd3bj scf=xqc pop=npa geom=check

CID_113671772_JID_8437_Energie_neutraal

0 1

--Link1--
%chk=JID_8437.chk
%mem=8GB
%nprocshared=4
# B3LYP/6-311++G(d,p) empiricaldispersion=gd3bj scf=xqc pop=npa geom=check

CID_113671772_JID_8437_Energie_kation

1 2

--Link1--
%chk=JID_8437.chk
%mem=8GB
%nprocshared=4
# B3LYP/6-311++G(d,p) empiricaldispersion=gd3bj scf=xqc pop=npa geom=check

CID_113671772_JID_8437_Energie_anion

-1 2
