%chk=JID_2052.chk
%mem=8GB
%nprocshared=4
# opt freq B3LYP/6-31G(d) empiricaldispersion=gd3bj scf=xqc

CID_116709688_JID_2052_neutraal

0 1
C          1.07120       -0.04779       -0.05145
C          0.38142       -0.89048       -1.09039
C         -0.41698       -1.90612       -0.72764
C          0.67159       -0.48371       -2.51476
O          1.41643        0.48707       -2.70071
C          0.08113       -1.23079       -3.74338
C          1.01049       -2.37102       -4.27932
C          1.07845       -3.57651       -3.32692
C          0.44994       -2.87478       -5.62988
C          2.44084       -1.85365       -4.52626
O         -1.25214       -1.72083       -3.60328
C         -2.22720       -0.68438       -3.64205
H          0.83775       -0.37688        0.96700
H          0.76003        0.99875       -0.13698
H          2.15831       -0.10306       -0.17225
H         -0.93610       -2.54458       -1.43160
H         -0.58020       -2.14056        0.32067
H          0.05007       -0.46487       -4.53424
H          0.08417       -3.98832       -3.12521
H          1.68154       -4.38380       -3.75939
H          1.54271       -3.31029       -2.37265
H          0.37645       -2.05695       -6.35560
H          1.09670       -3.64528       -6.06541
H         -0.54761       -3.31286       -5.51543
H          2.43578       -0.97353       -5.17878
H          2.94058       -1.58082       -3.59083
H          3.05992       -2.61910       -5.00858
H         -3.21104       -1.13666       -3.49086
H         -2.05587        0.04770       -2.84783
H         -2.22005       -0.19050       -4.61843

--Link1--
%chk=JID_2052.chk
%mem=8GB
%nprocshared=4
# B3LYP/6-311++G(d,p) empiricaldispersion=gd3bj scf=xqc pop=npa geom=check

CID_116709688_JID_2052_Energie_neutraal

0 1

--Link1--
%chk=JID_2052.chk
%mem=8GB
%nprocshared=4
# B3LYP/6-311++G(d,p) empiricaldispersion=gd3bj scf=xqc pop=npa geom=check

CID_116709688_JID_2052_Energie_kation

1 2

--Link1--
%chk=JID_2052.chk
%mem=8GB
%nprocshared=4
# B3LYP/6-311++G(d,p) empiricaldispersion=gd3bj scf=xqc pop=npa geom=check

CID_116709688_JID_2052_Energie_anion

-1 2
