%chk=JID_9099.chk
%mem=8GB
%nprocshared=4
# opt freq B3LYP/6-31G(d) empiricaldispersion=gd3bj scf=xqc

CID_140224191_JID_9099_neutraal

0 1
C          0.91684        0.05547       -0.00271
C          1.88383       -1.07320       -0.30792
O          2.52676       -1.44978        0.91877
C          3.58315       -2.29487        0.68487
C          3.33245       -3.59829        0.24242
C          4.38868       -4.48229        0.04720
C          5.69026       -4.06715        0.30520
C          5.93616       -2.77268        0.77382
C          4.88489       -1.85905        0.99775
C          5.16187       -0.42592        1.49541
C          6.46945       -0.33641        2.30400
O          7.59941       -0.18299        1.83880
C          5.13646        0.61889        0.37057
C          4.38718        1.80480        0.48593
C          4.36106        2.74827       -0.54439
C          5.09066        2.53016       -1.70877
C          5.85230        1.37295       -1.84051
C          5.87882        0.42920       -0.81030
O          4.19222       -0.05300        2.50512
H          0.16828       -0.26730        0.72843
H          0.40371        0.38518       -0.91037
H          1.44120        0.90926        0.43703
H          1.32485       -1.92145       -0.71871
H          2.62147       -0.73339       -1.04509
H          2.31501       -3.93282        0.06091
H          4.19722       -5.49318       -0.30300
H          6.52070       -4.75118        0.14485
H          6.97436       -2.49207        0.94754
H          6.35703       -0.51463        3.38865
H          3.81008        2.00818        1.38622
H          3.77390        3.65592       -0.43189
H          5.07484        3.26607       -2.50798
H          6.43550        1.20548       -2.74227
H          6.49942       -0.45551       -0.93719
H          3.48871       -0.72725        2.48889

--Link1--
%chk=JID_9099.chk
%mem=8GB
%nprocshared=4
# B3LYP/6-311++G(d,p) empiricaldispersion=gd3bj scf=xqc pop=npa geom=check

CID_140224191_JID_9099_Energie_neutraal

0 1

--Link1--
%chk=JID_9099.chk
%mem=8GB
%nprocshared=4
# B3LYP/6-311++G(d,p) empiricaldispersion=gd3bj scf=xqc pop=npa geom=check

CID_140224191_JID_9099_Energie_kation

1 2

--Link1--
%chk=JID_9099.chk
%mem=8GB
%nprocshared=4
# B3LYP/6-311++G(d,p) empiricaldispersion=gd3bj scf=xqc pop=npa geom=check

CID_140224191_JID_9099_Energie_anion

-1 2
