%chk=JID_6885.chk
%mem=8GB
%nprocshared=4
# opt freq B3LYP/6-31G(d) empiricaldispersion=gd3bj scf=xqc

CID_80895557_JID_6885_neutraal

0 1
C          1.03734       -0.06396       -0.06720
C          1.55925       -0.67862       -1.35708
C          2.13581       -2.08684       -1.17986
N          1.08466       -3.07252       -0.90906
C          0.43666       -3.69559       -2.05802
C          1.14133       -4.96590       -2.44265
C          0.51138       -6.32106       -2.22790
C          0.64156       -5.77012       -3.61859
C          0.88301       -3.49249        0.39635
N          1.64811       -2.94655        1.37545
C          1.45087       -3.33443        2.65702
C          0.46896       -4.26708        2.96874
N         -0.32686       -4.84065        2.04034
C         -0.09018       -4.42756        0.76834
N          2.24974       -2.69412        3.63019
N          2.66584       -3.41609        4.76927
H          0.16999       -0.61022        0.31466
H          0.72384        0.96982       -0.24519
H          1.81223       -0.05215        0.70564
H          0.75548       -0.68560       -2.10243
H          2.35053       -0.02933       -1.75077
H          2.64410       -2.36170       -2.11370
H          2.93051       -2.08357       -0.42412
H         -0.63323       -3.85583       -1.88084
H          0.48169       -3.01249       -2.91592
H          2.21849       -4.88429       -2.34122
H          1.16446       -7.13693       -1.93735
H         -0.48607       -6.38888       -1.81056
H         -0.26338       -5.45141       -4.12354
H          1.37861       -6.21970       -4.27488
H          0.28884       -4.57846        3.98988
H         -0.74737       -4.88652        0.04197
H          2.97158       -2.20845        3.08693
H          3.38630       -2.88825        5.27012
H          1.89276       -3.48556        5.43687

--Link1--
%chk=JID_6885.chk
%mem=8GB
%nprocshared=4
# B3LYP/6-311++G(d,p) empiricaldispersion=gd3bj scf=xqc pop=npa geom=check

CID_80895557_JID_6885_Energie_neutraal

0 1

--Link1--
%chk=JID_6885.chk
%mem=8GB
%nprocshared=4
# B3LYP/6-311++G(d,p) empiricaldispersion=gd3bj scf=xqc pop=npa geom=check

CID_80895557_JID_6885_Energie_kation

1 2

--Link1--
%chk=JID_6885.chk
%mem=8GB
%nprocshared=4
# B3LYP/6-311++G(d,p) empiricaldispersion=gd3bj scf=xqc pop=npa geom=check

CID_80895557_JID_6885_Energie_anion

-1 2
