%chk=JID_4246.chk
%mem=8GB
%nprocshared=4
# opt freq B3LYP/6-31G(d) empiricaldispersion=gd3bj scf=xqc

CID_79561940_JID_4246_neutraal

0 1
C          0.98857        0.01314       -0.09847
C          0.67709        1.35563        0.58933
C          0.95738        2.48949       -0.41448
C         -0.80190        1.42899        1.02043
N         -1.20721        0.36347        1.92540
C         -2.43203        0.37271        2.51709
N         -2.65198       -0.15809        3.70258
N         -3.96013       -0.03185        4.12508
C         -4.69924        0.57737        3.22777
S         -3.85889        1.05674        1.81770
S          1.77744        1.53326        2.03343
O          1.48332        0.44622        2.95062
O          3.13144        1.72879        1.54930
C          1.30052        3.03888        2.85524
H          0.34133       -0.14376       -0.96846
H          0.84877       -0.83509        0.57999
H          2.02793       -0.02135       -0.44436
H          0.33992        2.37938       -1.31335
H          0.73816        3.47250        0.01378
H          2.00515        2.49600       -0.73381
H         -1.00654        2.40229        1.48202
H         -1.42441        1.37545        0.11724
H         -0.47404        0.00933        2.55265
H         -5.75389        0.76283        3.37321
H          1.38096        3.87612        2.16227
H          0.28547        2.93922        3.24086
H          1.98802        3.19166        3.69083

--Link1--
%chk=JID_4246.chk
%mem=8GB
%nprocshared=4
# B3LYP/6-311++G(d,p) empiricaldispersion=gd3bj scf=xqc pop=npa geom=check

CID_79561940_JID_4246_Energie_neutraal

0 1

--Link1--
%chk=JID_4246.chk
%mem=8GB
%nprocshared=4
# B3LYP/6-311++G(d,p) empiricaldispersion=gd3bj scf=xqc pop=npa geom=check

CID_79561940_JID_4246_Energie_kation

1 2

--Link1--
%chk=JID_4246.chk
%mem=8GB
%nprocshared=4
# B3LYP/6-311++G(d,p) empiricaldispersion=gd3bj scf=xqc pop=npa geom=check

CID_79561940_JID_4246_Energie_anion

-1 2
