%chk=JID_6166.chk
%mem=8GB
%nprocshared=4
# opt freq B3LYP/6-31G(d) empiricaldispersion=gd3bj scf=xqc

CID_135542481_JID_6166_neutraal

0 1
C          1.09053       -0.03783       -0.01934
C          0.66943       -1.41547       -0.44622
C         -0.34254       -1.58104       -1.31584
C         -0.75204       -2.86619       -1.73056
N         -1.70612       -3.22147       -2.56015
N         -1.70866       -4.58442       -2.63581
C         -0.75528       -5.05208       -1.85144
N         -0.10519       -3.98965       -1.23979
C          0.97308       -3.90991       -0.31631
C          1.37049       -2.61183        0.09041
C          2.43218       -2.49069        1.00342
C          3.08562       -3.61911        1.50256
C          2.67811       -4.87839        1.08882
C          1.63072       -5.03659        0.18647
O          3.28708       -6.00807        1.54979
C         -0.47439       -6.49540       -1.69453
H          0.97631        0.08622        1.06277
H          0.48577        0.74087       -0.49775
H          2.13379        0.15249       -0.29284
H         -0.88014       -0.73400       -1.73053
H          2.77284       -1.51675        1.34545
H          3.90226       -3.49244        2.20670
H          1.37414       -6.05009       -0.08472
H          3.99467       -5.75625        2.16661
H          0.54005       -6.73936       -2.02240
H         -0.62540       -6.81810       -0.66054
H         -1.16057       -7.08170       -2.31575

--Link1--
%chk=JID_6166.chk
%mem=8GB
%nprocshared=4
# B3LYP/6-311++G(d,p) empiricaldispersion=gd3bj scf=xqc pop=npa geom=check

CID_135542481_JID_6166_Energie_neutraal

0 1

--Link1--
%chk=JID_6166.chk
%mem=8GB
%nprocshared=4
# B3LYP/6-311++G(d,p) empiricaldispersion=gd3bj scf=xqc pop=npa geom=check

CID_135542481_JID_6166_Energie_kation

1 2

--Link1--
%chk=JID_6166.chk
%mem=8GB
%nprocshared=4
# B3LYP/6-311++G(d,p) empiricaldispersion=gd3bj scf=xqc pop=npa geom=check

CID_135542481_JID_6166_Energie_anion

-1 2
