%chk=JID_8492.chk
%mem=8GB
%nprocshared=4
# opt freq B3LYP/6-31G(d) empiricaldispersion=gd3bj scf=xqc

CID_113300137_JID_8492_neutraal

0 1
C          1.02303       -0.05659       -0.07917
C          0.39122       -0.41405        1.26627
C          0.88373        0.50350        2.38578
N         -1.07883       -0.50060        1.18247
C         -1.81864       -1.64129        1.14558
N         -3.10139       -1.45837        0.99432
N         -3.23624       -0.11079        0.90822
C         -1.99834        0.50773        0.98683
S         -1.82476        2.14899        0.84036
C         -1.23286       -3.02952        1.25386
C         -0.51998       -3.46695       -0.00504
C         -1.17826       -3.44891       -1.24086
C         -0.50254       -3.81564       -2.40655
C          0.83597       -4.20774       -2.36083
C          1.48649       -4.26549       -1.12900
C          0.81064       -3.90386        0.04191
O          1.38561       -4.51764       -3.57391
C          2.79748       -4.68365       -3.61003
H          0.78809        0.96744       -0.38318
H          0.66880       -0.72389       -0.87113
H          2.11352       -0.14392       -0.02672
H          0.75986       -1.40896        1.52802
H          0.73655        1.56202        2.15923
H          0.36924        0.28137        3.32673
H          1.95780        0.35927        2.54777
H         -4.12883        0.33839        0.74331
H         -0.56030       -3.05962        2.11830
H         -2.03967       -3.74277        1.46260
H         -2.21952       -3.13786       -1.31029
H         -1.02244       -3.78439       -3.36111
H          2.51759       -4.59162       -1.04400
H          1.34075       -3.95696        0.99050
H          3.31264       -3.79701       -3.22465
H          3.10032       -5.58418       -3.06637
H          3.09246       -4.81049       -4.65610

--Link1--
%chk=JID_8492.chk
%mem=8GB
%nprocshared=4
# B3LYP/6-311++G(d,p) empiricaldispersion=gd3bj scf=xqc pop=npa geom=check

CID_113300137_JID_8492_Energie_neutraal

0 1

--Link1--
%chk=JID_8492.chk
%mem=8GB
%nprocshared=4
# B3LYP/6-311++G(d,p) empiricaldispersion=gd3bj scf=xqc pop=npa geom=check

CID_113300137_JID_8492_Energie_kation

1 2

--Link1--
%chk=JID_8492.chk
%mem=8GB
%nprocshared=4
# B3LYP/6-311++G(d,p) empiricaldispersion=gd3bj scf=xqc pop=npa geom=check

CID_113300137_JID_8492_Energie_anion

-1 2
