%chk=JID_10128.chk
%mem=8GB
%nprocshared=4
# opt freq B3LYP/6-31G(d) empiricaldispersion=gd3bj scf=xqc

CID_43084596_JID_10128_neutraal

0 1
C          1.05406        0.01694        0.08240
C          0.22268        0.78979       -0.93637
N          0.91488        1.41602       -2.06325
C          1.67093        0.47738       -2.89658
C          3.13188        0.60770       -2.48858
C          3.21549        1.87419       -1.64913
C          1.84112        2.53055       -1.78243
C          1.48299        3.49586       -0.62573
N          2.45314        4.59310       -0.51065
C          2.05218        5.61142        0.47834
C          2.08835        5.13690        1.92931
C          2.86732        6.91102        0.28571
O          2.29511        7.97992        0.04266
N          4.22071        6.96219        0.42635
C          5.19796        5.90836        0.57765
C          5.69421        5.44903       -0.74392
C          5.52380        5.87022       -2.04819
C          6.27121        4.98331       -2.85928
C          6.84960        4.07726       -2.00318
O          6.50311        4.34838       -0.71899
H          1.59756       -0.81178       -0.38017
H          0.39300       -0.41412        0.84221
H          1.76865        0.65821        0.60329
H         -0.52380        0.09816       -1.34887
H         -0.37134        1.54587       -0.40934
H          1.56235        0.78381       -3.94449
H          1.31276       -0.55655       -2.83973
H          3.46127       -0.25628       -1.90146
H          3.77784        0.67560       -3.37058
H          3.44891        1.61962       -0.60967
H          4.01275        2.53047       -2.01299
H          1.85988        3.13871       -2.69953
H          0.48446        3.90666       -0.81868
H          1.44451        2.94857        0.32109
H          3.36633        4.20848       -0.28313
H          1.01762        5.90736        0.25394
H          3.01217        4.60889        2.17825
H          1.99817        5.98342        2.61884
H          1.25871        4.45214        2.13524
H          4.58261        7.88584        0.22682
H          6.02969        6.32599        1.15448
H          4.78420        5.07301        1.14104
H          4.92155        6.70820       -2.37332
H          6.37107        4.99998       -3.93542
H          7.49669        3.22253       -2.14310

--Link1--
%chk=JID_10128.chk
%mem=8GB
%nprocshared=4
# B3LYP/6-311++G(d,p) empiricaldispersion=gd3bj scf=xqc pop=npa geom=check

CID_43084596_JID_10128_Energie_neutraal

0 1

--Link1--
%chk=JID_10128.chk
%mem=8GB
%nprocshared=4
# B3LYP/6-311++G(d,p) empiricaldispersion=gd3bj scf=xqc pop=npa geom=check

CID_43084596_JID_10128_Energie_kation

1 2

--Link1--
%chk=JID_10128.chk
%mem=8GB
%nprocshared=4
# B3LYP/6-311++G(d,p) empiricaldispersion=gd3bj scf=xqc pop=npa geom=check

CID_43084596_JID_10128_Energie_anion

-1 2
