%chk=JID_10800.chk
%mem=8GB
%nprocshared=4
# opt freq B3LYP/6-31G(d) empiricaldispersion=gd3bj scf=xqc

CID_103332761_JID_10800_neutraal

0 1
C          1.07895       -0.05756       -0.02130
C          0.80280       -1.51500       -0.14212
C          1.70120       -2.55097       -0.29256
C          1.07245       -3.84225       -0.33694
C          1.54740       -5.16199       -0.43451
N          0.65147       -6.16650       -0.53592
C         -0.66398       -5.90275       -0.50257
N         -1.20956       -4.69112       -0.35473
C         -0.30455       -3.70595       -0.28787
S         -0.80639       -2.08682       -0.11456
N         -1.51882       -7.02178       -0.62068
N         -2.82287       -6.82248       -1.14786
N          2.88376       -5.56362       -0.45651
C          3.77119       -5.08944        0.60852
C          3.32725       -5.47900        2.02605
C          3.39789       -6.95645        2.29576
C          4.54261       -7.63654        2.67011
S          4.27329       -9.30825        2.90846
C          2.61698       -9.15017        2.52354
C          2.27990       -7.85067        2.21814
H          0.66914        0.34074        0.91275
H          0.63749        0.49183       -0.85930
H          2.15641        0.13813       -0.02311
H          2.76875       -2.38987       -0.36635
H         -0.95941       -7.76947       -1.03341
H         -3.49458       -7.35528       -0.59052
H         -3.08531       -5.83859       -0.99842
H          2.85837       -6.58413       -0.49106
H          4.76628       -5.50781        0.41222
H          3.89592       -4.00522        0.55087
H          3.98068       -4.96616        2.74413
H          2.31289       -5.11604        2.23033
H          5.53483       -7.23243        2.81942
H          1.96815      -10.01495        2.54096
H          1.27286       -7.55192        1.94860

--Link1--
%chk=JID_10800.chk
%mem=8GB
%nprocshared=4
# B3LYP/6-311++G(d,p) empiricaldispersion=gd3bj scf=xqc pop=npa geom=check

CID_103332761_JID_10800_Energie_neutraal

0 1

--Link1--
%chk=JID_10800.chk
%mem=8GB
%nprocshared=4
# B3LYP/6-311++G(d,p) empiricaldispersion=gd3bj scf=xqc pop=npa geom=check

CID_103332761_JID_10800_Energie_kation

1 2

--Link1--
%chk=JID_10800.chk
%mem=8GB
%nprocshared=4
# B3LYP/6-311++G(d,p) empiricaldispersion=gd3bj scf=xqc pop=npa geom=check

CID_103332761_JID_10800_Energie_anion

-1 2
