%chk=JID_9540.chk
%mem=8GB
%nprocshared=4
# opt freq B3LYP/6-31G(d) empiricaldispersion=gd3bj scf=xqc

CID_62344424_JID_9540_neutraal

0 1
C         -0.72000        1.26100        0.22400
C          0.62429        1.04784       -0.46431
N          1.29831       -0.13694        0.06608
C          0.50209       -1.34825       -0.13418
C         -0.85817       -1.23942        0.54949
C         -1.60082        0.01677        0.08127
O         -2.92624        0.18647        0.62359
C         -3.05816        0.13533        1.97976
C         -3.54266       -0.99961        2.63626
C         -3.70291       -1.03197        4.02711
C         -3.40709        0.11244        4.77459
C         -2.99323        1.28048        4.11957
C         -2.83226        1.29140        2.72845
C         -3.59367        0.05728        6.24763
O         -4.32009       -0.78071        6.76480
N         -2.89472        0.95079        7.00870
N         -3.89576       -2.18856        1.88655
O         -3.34054       -3.24438        2.22288
O         -4.73886       -2.07631        0.98754
H         -1.23155        2.13396       -0.19780
H         -0.54083        1.48891        1.28063
H          0.49163        0.95739       -1.54925
H          1.25904        1.92368       -0.29100
H          2.20005       -0.24890       -0.39950
H          1.04563       -2.20290        0.28320
H          0.37534       -1.54301       -1.20619
H         -0.71684       -1.22206        1.63707
H         -1.45363       -2.13148        0.32668
H         -1.78176       -0.11386       -0.99472
H         -4.06225       -1.93191        4.52453
H         -2.82560        2.20263        4.66995
H         -2.54785        2.21673        2.23315
H         -2.11947        1.49207        6.65534
H         -2.95876        0.82821        8.01206

--Link1--
%chk=JID_9540.chk
%mem=8GB
%nprocshared=4
# B3LYP/6-311++G(d,p) empiricaldispersion=gd3bj scf=xqc pop=npa geom=check

CID_62344424_JID_9540_Energie_neutraal

0 1

--Link1--
%chk=JID_9540.chk
%mem=8GB
%nprocshared=4
# B3LYP/6-311++G(d,p) empiricaldispersion=gd3bj scf=xqc pop=npa geom=check

CID_62344424_JID_9540_Energie_kation

1 2

--Link1--
%chk=JID_9540.chk
%mem=8GB
%nprocshared=4
# B3LYP/6-311++G(d,p) empiricaldispersion=gd3bj scf=xqc pop=npa geom=check

CID_62344424_JID_9540_Energie_anion

-1 2
