%chk=JID_8831.chk
%mem=8GB
%nprocshared=4
# opt freq B3LYP/6-31G(d) empiricaldispersion=gd3bj scf=xqc

CID_108864873_JID_8831_neutraal

0 1
C          0.65300       -1.21900        0.25200
C         -0.57568       -0.30201        0.23382
N         -1.07105       -0.13973        1.60203
C         -0.08035        0.44320        2.51351
C          1.21853       -0.39615        2.51554
N          1.70592       -0.65361        1.12955
C          2.66541        0.22461        0.61818
C          3.80432        0.55044        1.37628
C          4.79791        1.41372        0.89826
C          4.68519        1.96897       -0.36923
C          3.58636        1.64872       -1.15588
C          2.59794        0.78240       -0.66871
C         -2.38815       -0.15084        1.94669
O         -2.86929        0.55010        2.83201
N         -3.20054       -1.04961        1.32512
C         -2.79403       -2.41305        1.01814
C         -2.46741       -3.22716        2.25949
N         -2.19645       -3.90253        3.28929
H          0.37614       -2.20046        0.65676
H          1.02387       -1.41005       -0.76080
H         -1.34822       -0.66797       -0.44567
H         -0.31620        0.69979       -0.12922
H          0.12026        1.46694        2.17599
H         -0.48437        0.49589        3.53022
H          1.00561       -1.37130        2.97224
H          1.96004        0.08824        3.15780
H          3.95725        0.09965        2.35357
H          5.66315        1.63671        1.51661
H          5.45455        2.63660       -0.74643
H          3.49279        2.06819       -2.15418
H          1.76551        0.57387       -1.33163
H         -4.13017       -0.96698        1.72027
H         -3.64262       -2.88128        0.50766
H         -1.94792       -2.45174        0.33566

--Link1--
%chk=JID_8831.chk
%mem=8GB
%nprocshared=4
# B3LYP/6-311++G(d,p) empiricaldispersion=gd3bj scf=xqc pop=npa geom=check

CID_108864873_JID_8831_Energie_neutraal

0 1

--Link1--
%chk=JID_8831.chk
%mem=8GB
%nprocshared=4
# B3LYP/6-311++G(d,p) empiricaldispersion=gd3bj scf=xqc pop=npa geom=check

CID_108864873_JID_8831_Energie_kation

1 2

--Link1--
%chk=JID_8831.chk
%mem=8GB
%nprocshared=4
# B3LYP/6-311++G(d,p) empiricaldispersion=gd3bj scf=xqc pop=npa geom=check

CID_108864873_JID_8831_Energie_anion

-1 2
