%chk=JID_1095.chk
%mem=8GB
%nprocshared=4
# opt freq B3LYP/6-31G(d) empiricaldispersion=gd3bj scf=xqc

CID_59370285_JID_1095_neutraal

0 1
C          1.07599        0.01978        0.06192
C          0.29463       -0.76282       -1.00730
C          1.01795       -2.09030       -1.29100
C         -1.11057       -1.06857       -0.46516
C          0.22006        0.05147       -2.32051
O         -0.33141        1.34984       -2.11480
C         -1.69139        1.50210       -2.53427
C         -1.81567        2.28332       -3.86488
C         -0.95670        1.67941       -4.97749
C         -3.28426        2.33302       -4.29457
O         -1.39085        3.63640       -3.65029
H          1.18261       -0.56714        0.98135
H          0.57121        0.95552        0.32601
H          2.08280        0.27051       -0.29045
H          1.09632       -2.70185       -0.38504
H          0.48306       -2.67857       -2.04507
H          2.03416       -1.91589       -1.66226
H         -1.64262       -0.15416       -0.18271
H         -1.71521       -1.59546       -1.21164
H         -1.05931       -1.70345        0.42689
H          1.23588        0.20790       -2.70331
H         -0.32305       -0.49901       -3.09860
H         -2.19564        0.53090       -2.60084
H         -2.18609        2.07361       -1.74026
H         -1.21424        0.63126       -5.15989
H         -1.08943        2.23093       -5.91562
H          0.10963        1.74609       -4.73647
H         -3.89849        2.81355       -3.52435
H         -3.40648        2.93166       -5.20451
H         -3.68380        1.33124       -4.48283
H         -1.33045        4.07757       -4.51377

--Link1--
%chk=JID_1095.chk
%mem=8GB
%nprocshared=4
# B3LYP/6-311++G(d,p) empiricaldispersion=gd3bj scf=xqc pop=npa geom=check

CID_59370285_JID_1095_Energie_neutraal

0 1

--Link1--
%chk=JID_1095.chk
%mem=8GB
%nprocshared=4
# B3LYP/6-311++G(d,p) empiricaldispersion=gd3bj scf=xqc pop=npa geom=check

CID_59370285_JID_1095_Energie_kation

1 2

--Link1--
%chk=JID_1095.chk
%mem=8GB
%nprocshared=4
# B3LYP/6-311++G(d,p) empiricaldispersion=gd3bj scf=xqc pop=npa geom=check

CID_59370285_JID_1095_Energie_anion

-1 2
