%chk=JID_4763.chk
%mem=8GB
%nprocshared=4
# opt freq B3LYP/6-31G(d) empiricaldispersion=gd3bj scf=xqc

CID_64881940_JID_4763_neutraal

0 1
C          0.99338        0.05505        0.08322
C          0.31161        1.02511        1.05316
C          0.89386        2.42629        0.83309
C         -1.22077        1.05225        0.86285
C         -2.01164        0.11874        1.80791
C         -1.63614       -1.37345        1.65087
N         -2.46433       -2.30045        2.43662
C         -3.92205       -2.06348        2.29026
C         -4.26545       -0.54549        2.38706
N         -3.44951        0.35018        1.55580
C         -4.59449       -2.85859        1.10334
C         -4.10161       -4.32506        1.10942
C         -6.12738       -2.89642        1.31863
C         -4.34686       -2.27931       -0.29886
H          0.80669        0.34039       -0.95805
H          0.64769       -0.97223        0.21309
H          2.07786        0.05492        0.23890
H          0.55076        0.72593        2.08083
H          0.67656        2.79333       -0.17600
H          0.47485        3.13875        1.55168
H          1.98099        2.42275        0.96655
H         -1.58126        2.07496        1.04294
H         -1.46873        0.82653       -0.18315
H         -1.79701        0.42612        2.84041
H         -0.60415       -1.52085        1.98733
H         -1.65427       -1.66521        0.59796
H         -2.23447       -2.13799        3.41873
H         -4.35315       -2.50973        3.19908
H         -4.14121       -0.23068        3.43211
H         -5.31942       -0.36798        2.15542
H         -3.63737        0.15115        0.57553
H         -4.25456       -4.79024        2.08970
H         -4.64151       -4.92854        0.37033
H         -3.03647       -4.39365        0.86254
H         -6.57699       -1.90218        1.23725
H         -6.61589       -3.53047        0.56915
H         -6.38001       -3.30241        2.30451
H         -4.77306       -1.27794       -0.40588
H         -3.28717       -2.23981       -0.55475
H         -4.82743       -2.90167       -1.06415

--Link1--
%chk=JID_4763.chk
%mem=8GB
%nprocshared=4
# B3LYP/6-311++G(d,p) empiricaldispersion=gd3bj scf=xqc pop=npa geom=check

CID_64881940_JID_4763_Energie_neutraal

0 1

--Link1--
%chk=JID_4763.chk
%mem=8GB
%nprocshared=4
# B3LYP/6-311++G(d,p) empiricaldispersion=gd3bj scf=xqc pop=npa geom=check

CID_64881940_JID_4763_Energie_kation

1 2

--Link1--
%chk=JID_4763.chk
%mem=8GB
%nprocshared=4
# B3LYP/6-311++G(d,p) empiricaldispersion=gd3bj scf=xqc pop=npa geom=check

CID_64881940_JID_4763_Energie_anion

-1 2
