%chk=JID_2994.chk
%mem=8GB
%nprocshared=4
# opt freq B3LYP/6-31G(d) empiricaldispersion=gd3bj scf=xqc

CID_126983455_JID_2994_neutraal

0 1
C          1.06932        0.07156        0.00862
S         -0.04104        0.10475       -1.38199
O          0.45571       -0.85113       -2.35577
O         -1.40048       -0.00858       -0.88730
C          0.14658        1.70672       -2.10463
C         -0.20569        2.76174       -1.10677
O          0.59717        3.08747       -0.23150
C         -1.51668        3.42983       -1.19984
C         -1.82249        4.55155       -0.55768
O         -3.09687        5.03584       -0.76348
C         -3.75558        3.95779       -1.46348
C         -2.68641        3.00262       -1.99433
H          1.11009       -0.95529        0.37922
H          0.68989        0.72557        0.79422
H          2.06071        0.38425       -0.32357
H          1.18484        1.83166       -2.42497
H         -0.48595        1.75592       -2.99395
H         -1.20178        5.15451        0.08606
H         -4.36610        4.37406       -2.27151
H         -4.42268        3.45097       -0.75550
H         -2.97834        1.96167       -1.83730
H         -2.51469        3.16559       -3.06352

--Link1--
%chk=JID_2994.chk
%mem=8GB
%nprocshared=4
# B3LYP/6-311++G(d,p) empiricaldispersion=gd3bj scf=xqc pop=npa geom=check

CID_126983455_JID_2994_Energie_neutraal

0 1

--Link1--
%chk=JID_2994.chk
%mem=8GB
%nprocshared=4
# B3LYP/6-311++G(d,p) empiricaldispersion=gd3bj scf=xqc pop=npa geom=check

CID_126983455_JID_2994_Energie_kation

1 2

--Link1--
%chk=JID_2994.chk
%mem=8GB
%nprocshared=4
# B3LYP/6-311++G(d,p) empiricaldispersion=gd3bj scf=xqc pop=npa geom=check

CID_126983455_JID_2994_Energie_anion

-1 2
