%chk=JID_6357.chk
%mem=8GB
%nprocshared=4
# opt freq B3LYP/6-31G(d) empiricaldispersion=gd3bj scf=xqc

CID_60889704_JID_6357_neutraal

0 1
C          2.49200        0.00400       -0.01400
C          0.99172        0.04689       -0.00550
C          0.24776       -1.13647       -0.12919
C         -1.16171       -1.12679       -0.10587
C         -1.82227        0.11461        0.04883
C         -1.07812        1.29294        0.17048
C          0.31691        1.25882        0.14296
O         -3.19427        0.06808        0.07573
C         -3.89554        1.30393        0.11492
C         -1.98358       -2.40733       -0.27732
C         -2.57399       -2.45588       -1.69802
N         -1.20632       -3.64763       -0.04083
C         -2.05804       -4.73259        0.46208
C         -1.48595       -6.12083        0.15278
C         -0.12413       -6.43370        0.77102
N         -0.17994       -6.50503        2.22727
H          2.85623       -0.55019        0.85688
H          2.85009       -0.48331       -0.92663
H          2.92459        1.00934        0.01867
H          0.77935       -2.07963       -0.23782
H         -1.55315        2.26028        0.29348
H          0.87113        2.18907        0.24321
H         -3.70050        1.83798        1.05039
H         -3.65558        1.92382       -0.75537
H         -4.96620        1.08074        0.07738
H         -2.79517       -2.36590        0.46129
H         -1.78325       -2.46569       -2.45801
H         -3.19172       -3.34787       -1.84700
H         -3.21050       -1.58961       -1.90488
H         -0.77278       -3.92317       -0.92011
H         -2.19922       -4.60872        1.54158
H         -3.05432       -4.69250        0.00552
H         -2.21222       -6.87550        0.48283
H         -1.40743       -6.23601       -0.93630
H          0.21186       -7.40633        0.39389
H          0.62418       -5.69581        0.46364
H          0.74210       -6.75723        2.58172
H         -0.36646       -5.57088        2.59487

--Link1--
%chk=JID_6357.chk
%mem=8GB
%nprocshared=4
# B3LYP/6-311++G(d,p) empiricaldispersion=gd3bj scf=xqc pop=npa geom=check

CID_60889704_JID_6357_Energie_neutraal

0 1

--Link1--
%chk=JID_6357.chk
%mem=8GB
%nprocshared=4
# B3LYP/6-311++G(d,p) empiricaldispersion=gd3bj scf=xqc pop=npa geom=check

CID_60889704_JID_6357_Energie_kation

1 2

--Link1--
%chk=JID_6357.chk
%mem=8GB
%nprocshared=4
# B3LYP/6-311++G(d,p) empiricaldispersion=gd3bj scf=xqc pop=npa geom=check

CID_60889704_JID_6357_Energie_anion

-1 2
