%chk=JID_9854.chk
%mem=8GB
%nprocshared=4
# opt freq B3LYP/6-31G(d) empiricaldispersion=gd3bj scf=xqc

CID_138330955_JID_9854_neutraal

0 1
C          1.01500        0.05272        0.08364
C          0.56566       -1.39717        0.17081
C          0.24704       -1.85460        1.59685
C         -0.98579       -1.20768        2.22733
O         -2.19961       -1.67890        1.61753
C         -2.79394       -0.84894        0.71784
O         -2.34694        0.23890        0.36912
C         -4.16737       -1.34548        0.28436
N         -4.25954       -2.77997       -0.04526
C         -5.48642       -3.41824        0.44616
C         -6.82833       -2.73165        0.09839
N         -6.92703       -2.31131       -1.28552
C         -8.04280       -1.88794       -1.94379
O         -7.93916       -1.37033       -3.05308
C         -9.37295       -2.09428       -1.27539
C         -3.54990       -3.33734       -1.22172
C         -3.05793       -2.26489       -2.22020
C         -2.32186       -4.09939       -0.67837
C         -4.34887       -4.37008       -2.06025
H          0.23533        0.74477        0.41043
H          1.27181        0.30435       -0.95041
H          1.90264        0.22278        0.70143
H         -0.29421       -1.55071       -0.48635
H          1.37168       -2.02948       -0.22118
H          0.09985       -2.94135        1.57657
H          1.11693       -1.66014        2.23564
H         -1.03943       -1.51692        3.27743
H         -0.92137       -0.11447        2.23629
H         -4.81409       -1.10465        1.13826
H         -4.51823       -0.73221       -0.55235
H         -5.54090       -4.47105        0.15715
H         -5.42183       -3.45940        1.54213
H         -7.65528       -3.41212        0.32661
H         -6.97167       -1.83565        0.71259
H         -6.06807       -2.05304       -1.75618
H         -9.56141       -3.16254       -1.14162
H         -9.39530       -1.58106       -0.31067
H        -10.16367       -1.67735       -1.90616
H         -2.34321       -1.56919       -1.77386
H         -2.54092       -2.72649       -3.07040
H         -3.89449       -1.68672       -2.62767
H         -2.61937       -4.89080        0.02004
H         -1.75802       -4.57408       -1.49035
H         -1.62827       -3.43972       -0.15541
H         -4.59455       -5.27297       -1.49175
H         -5.27149       -3.95063       -2.46692
H         -3.75783       -4.71217       -2.91963

--Link1--
%chk=JID_9854.chk
%mem=8GB
%nprocshared=4
# B3LYP/6-311++G(d,p) empiricaldispersion=gd3bj scf=xqc pop=npa geom=check

CID_138330955_JID_9854_Energie_neutraal

0 1

--Link1--
%chk=JID_9854.chk
%mem=8GB
%nprocshared=4
# B3LYP/6-311++G(d,p) empiricaldispersion=gd3bj scf=xqc pop=npa geom=check

CID_138330955_JID_9854_Energie_kation

1 2

--Link1--
%chk=JID_9854.chk
%mem=8GB
%nprocshared=4
# B3LYP/6-311++G(d,p) empiricaldispersion=gd3bj scf=xqc pop=npa geom=check

CID_138330955_JID_9854_Energie_anion

-1 2
