%chk=JID_5682.chk
%mem=8GB
%nprocshared=4
# opt freq B3LYP/6-31G(d) empiricaldispersion=gd3bj scf=xqc

CID_117058642_JID_5682_neutraal

0 1
C          0.98852        0.06825        0.07218
N          0.35267        1.40651        0.04103
C         -0.84414        1.40297       -0.83005
S          0.11580        2.05696        1.60867
O         -0.99094        1.37633        2.23702
O          1.40746        2.03136        2.27268
C         -0.24024        3.78072        1.30342
C          0.90137        4.56458        1.01828
C          0.81064        5.94315        0.83854
C         -0.42298        6.56478        0.94669
C         -1.55856        5.80253        1.22535
C         -1.49318        4.40338        1.40973
S         -3.10374        3.63429        1.65968
O         -3.11333        2.36831        0.86508
C         -3.00509        3.29015        3.42583
H          1.18365       -0.27613       -0.94879
H          0.34282       -0.66266        0.56841
H          1.95496        0.11254        0.58243
H         -1.61501        0.73195       -0.44190
H         -1.23870        2.41349       -0.95524
H         -0.56556        1.05521       -1.83091
H          1.88250        4.09496        0.93946
H          1.70297        6.52482        0.61995
H         -0.50743        7.63979        0.80621
H         -2.51643        6.31954        1.28226
H         -3.72026        2.50166        3.67211
H         -2.00609        2.98934        3.74056
H         -3.28031        4.19822        3.96905

--Link1--
%chk=JID_5682.chk
%mem=8GB
%nprocshared=4
# B3LYP/6-311++G(d,p) empiricaldispersion=gd3bj scf=xqc pop=npa geom=check

CID_117058642_JID_5682_Energie_neutraal

0 1

--Link1--
%chk=JID_5682.chk
%mem=8GB
%nprocshared=4
# B3LYP/6-311++G(d,p) empiricaldispersion=gd3bj scf=xqc pop=npa geom=check

CID_117058642_JID_5682_Energie_kation

1 2

--Link1--
%chk=JID_5682.chk
%mem=8GB
%nprocshared=4
# B3LYP/6-311++G(d,p) empiricaldispersion=gd3bj scf=xqc pop=npa geom=check

CID_117058642_JID_5682_Energie_anion

-1 2
