%chk=JID_9985.chk
%mem=8GB
%nprocshared=4
# opt freq B3LYP/6-31G(d) empiricaldispersion=gd3bj scf=xqc

CID_64842761_JID_9985_neutraal

0 1
C          1.07551       -0.06540        0.00455
C          0.67135        0.22795       -1.43408
C          0.99696       -0.92800       -2.39774
C          0.76340       -0.47027       -3.86643
N          0.92953       -1.53610       -4.87370
C          0.18433       -2.78056       -4.54198
C          0.43813       -3.18937       -3.04541
N          0.20675       -2.12726       -2.04727
C         -1.35883       -2.45013       -4.68868
C         -1.80148       -1.99069       -6.07726
C          0.42514       -4.00513       -5.49828
C          1.61158       -4.92865       -5.25294
C          2.25023       -1.57536       -5.50502
C          3.47137       -1.39493       -4.63267
C          4.12408       -0.16209       -4.58749
N          5.21362        0.10805       -3.83134
C          5.69225       -0.90348       -3.08018
C          5.13482       -2.16924       -3.05709
C          4.01337       -2.41393       -3.84745
H          0.51808       -0.91312        0.41441
H          0.87156        0.80486        0.63660
H          2.14490       -0.28924        0.07304
H         -0.39986        0.46317       -1.46806
H          1.20230        1.13090       -1.76031
H          2.05448       -1.17406       -2.26027
H          1.39899        0.39312       -4.09790
H         -0.25343       -0.06726       -3.95520
H          1.46579       -3.53963       -2.91237
H         -0.20653       -4.03783       -2.78462
H         -0.78106       -1.87849       -2.05439
H         -1.94440       -3.34035       -4.42084
H         -1.67665       -1.68337       -3.97426
H         -1.64168       -2.76525       -6.83221
H         -2.87291       -1.76379       -6.06573
H         -1.27567       -1.08408       -6.39031
H         -0.45977       -4.65564       -5.45592
H          0.47159       -3.65619       -6.53794
H          1.60382       -5.34788       -4.24352
H          1.55880       -5.77466       -5.94797
H          2.56927       -4.44339       -5.43177
H          2.39145       -2.44982       -6.14388
H          2.25213       -0.75473       -6.23710
H          3.77022        0.68264       -5.17380
H          6.56309       -0.66361       -2.47729
H          5.55801       -2.94826       -2.43313
H          3.56782       -3.40068       -3.82283

--Link1--
%chk=JID_9985.chk
%mem=8GB
%nprocshared=4
# B3LYP/6-311++G(d,p) empiricaldispersion=gd3bj scf=xqc pop=npa geom=check

CID_64842761_JID_9985_Energie_neutraal

0 1

--Link1--
%chk=JID_9985.chk
%mem=8GB
%nprocshared=4
# B3LYP/6-311++G(d,p) empiricaldispersion=gd3bj scf=xqc pop=npa geom=check

CID_64842761_JID_9985_Energie_kation

1 2

--Link1--
%chk=JID_9985.chk
%mem=8GB
%nprocshared=4
# B3LYP/6-311++G(d,p) empiricaldispersion=gd3bj scf=xqc pop=npa geom=check

CID_64842761_JID_9985_Energie_anion

-1 2
