%chk=JID_6337.chk
%mem=8GB
%nprocshared=4
# opt freq B3LYP/6-31G(d) empiricaldispersion=gd3bj scf=xqc

CID_132077468_JID_6337_neutraal

0 1
C         -1.35000        0.00100        0.79800
C         -1.60085       -1.19224       -0.11451
C         -0.37048       -1.85630       -0.73161
O          0.85288       -1.39713       -0.17718
C          1.54489       -0.44350       -0.96996
C          1.25227        0.99903       -0.56393
C         -0.11902        1.59052       -0.93541
C         -1.22014        1.36431        0.12190
C         -0.57749        1.26433       -2.36770
O         -1.63319        2.16406       -2.72893
C         -2.76146        1.59175       -3.24508
C         -2.77009        0.50846       -4.12298
C         -3.98542       -0.00273       -4.58557
C         -5.18851        0.58207       -4.18926
C         -5.17839        1.68709       -3.34060
C         -3.96508        2.19511       -2.87697
H         -0.49433       -0.18097        1.45805
H         -2.21175        0.07556        1.47609
H         -2.10207       -1.96015        0.49123
H         -2.32711       -0.94372       -0.89726
H         -0.37892       -1.78626       -1.82442
H         -0.42188       -2.93081       -0.51800
H          1.40216       -0.61625       -2.04219
H          2.61017       -0.62227       -0.78089
H          2.01315        1.62306       -1.05231
H          1.41156        1.11452        0.51548
H          0.02491        2.68277       -0.92633
H         -2.19706        1.64223       -0.29032
H         -1.04292        2.08896        0.92970
H          0.24401        1.43154       -3.07352
H         -0.87812        0.21982       -2.43882
H         -1.84536        0.05832       -4.46930
H         -3.99429       -0.85333       -5.26202
H         -6.13305        0.18353       -4.55037
H         -6.11217        2.15423       -3.03936
H         -3.95571        3.05672       -2.21456

--Link1--
%chk=JID_6337.chk
%mem=8GB
%nprocshared=4
# B3LYP/6-311++G(d,p) empiricaldispersion=gd3bj scf=xqc pop=npa geom=check

CID_132077468_JID_6337_Energie_neutraal

0 1

--Link1--
%chk=JID_6337.chk
%mem=8GB
%nprocshared=4
# B3LYP/6-311++G(d,p) empiricaldispersion=gd3bj scf=xqc pop=npa geom=check

CID_132077468_JID_6337_Energie_kation

1 2

--Link1--
%chk=JID_6337.chk
%mem=8GB
%nprocshared=4
# B3LYP/6-311++G(d,p) empiricaldispersion=gd3bj scf=xqc pop=npa geom=check

CID_132077468_JID_6337_Energie_anion

-1 2
