%chk=JID_9207.chk
%mem=8GB
%nprocshared=4
# opt freq B3LYP/6-31G(d) empiricaldispersion=gd3bj scf=xqc

CID_103808800_JID_9207_neutraal

0 1
C          0.91345       -0.04343       -0.02494
O          0.06438       -0.50960        1.01576
C          0.67336       -1.01514        2.13158
C         -0.20026       -1.54699        3.08229
C          0.28810       -2.09920        4.26615
C          1.65982       -2.12166        4.50840
C          2.55171       -1.58811        3.56911
C          2.04759       -1.03143        2.38098
C          4.03908       -1.58687        3.84318
C          4.50860       -0.31458        4.55983
N          4.03002       -0.23148        5.93121
C          4.63398       -0.72369        7.05487
O          3.97247       -0.83900        8.08832
C          6.11549       -1.10850        7.00500
N          6.26657       -2.41578        6.35171
C          7.65974       -2.83009        6.23461
C          8.20616       -3.28198        7.55349
C          7.78595       -4.60141        8.15302
C          9.18048       -4.43177        7.61802
H          0.27797        0.28119       -0.85455
H          1.56221       -0.84378       -0.39618
H          1.49926        0.82146        0.30318
H         -1.27137       -1.53322        2.89644
H         -0.40146       -2.51160        4.99797
H          2.02984       -2.55405        5.43648
H          2.74987       -0.61668        1.66528
H          4.29776       -2.48223        4.41965
H          4.57292       -1.67789        2.88877
H          5.60070       -0.27259        4.54864
H          4.13945        0.57882        4.04396
H          3.04240       -0.04459        6.06246
H          6.67094       -0.32432        6.47998
H          6.47889       -1.13407        8.03840
H          5.75183       -3.11276        6.89246
H          7.70138       -3.65167        5.50983
H          8.27858       -2.02541        5.82081
H          8.39261       -2.45355        8.22805
H          7.65462       -4.64882        9.22827
H          7.10607       -5.23639        7.59608
H          9.43808       -4.95356        6.70320
H          9.99324       -4.36883        8.33313

--Link1--
%chk=JID_9207.chk
%mem=8GB
%nprocshared=4
# B3LYP/6-311++G(d,p) empiricaldispersion=gd3bj scf=xqc pop=npa geom=check

CID_103808800_JID_9207_Energie_neutraal

0 1

--Link1--
%chk=JID_9207.chk
%mem=8GB
%nprocshared=4
# B3LYP/6-311++G(d,p) empiricaldispersion=gd3bj scf=xqc pop=npa geom=check

CID_103808800_JID_9207_Energie_kation

1 2

--Link1--
%chk=JID_9207.chk
%mem=8GB
%nprocshared=4
# B3LYP/6-311++G(d,p) empiricaldispersion=gd3bj scf=xqc pop=npa geom=check

CID_103808800_JID_9207_Energie_anion

-1 2
