%chk=JID_8019.chk
%mem=8GB
%nprocshared=4
# opt freq B3LYP/6-31G(d) empiricaldispersion=gd3bj scf=xqc

CID_55121231_JID_8019_neutraal

0 1
C          0.94689        0.06368       -0.05590
C          1.03964        0.03192        1.46240
N          0.87444        1.38460        1.99303
C          0.92614        1.42517        3.45873
C          2.34401        1.39281        4.03383
C          2.92209        2.79188        4.10430
O          2.79932        3.44521        5.14685
N          3.43735        3.41817        3.00593
C          3.90913        2.92349        1.77527
C          4.53245        1.67151        1.69639
C          5.01009        1.16806        0.48104
C          4.88938        1.91793       -0.68217
C          4.32599        3.18837       -0.62141
C          3.86960        3.70239        0.60619
S          3.23025        5.36303        0.57284
O          2.39745        5.48643       -0.60829
O          2.71417        5.69216        1.88903
C          4.68312        6.35261        0.33137
H         -0.02701        0.43973       -0.38718
H          1.07390       -0.94491       -0.46217
H          1.72536        0.70152       -0.48745
H          0.25846       -0.63075        1.85220
H          2.01104       -0.38480        1.74665
H         -0.02760        1.75148        1.68477
H          0.42574        2.34565        3.78457
H          0.33736        0.59859        3.87519
H          2.28767        1.03410        5.07064
H          2.98498        0.67532        3.53003
H          3.29036        4.42716        3.07843
H          4.71394        1.07768        2.58629
H          5.48177        0.18849        0.45033
H          5.24521        1.51999       -1.62935
H          4.23956        3.77253       -1.53602
H          5.37271        6.17758        1.15961
H          5.14637        6.09356       -0.62198
H          4.37843        7.40153        0.31985

--Link1--
%chk=JID_8019.chk
%mem=8GB
%nprocshared=4
# B3LYP/6-311++G(d,p) empiricaldispersion=gd3bj scf=xqc pop=npa geom=check

CID_55121231_JID_8019_Energie_neutraal

0 1

--Link1--
%chk=JID_8019.chk
%mem=8GB
%nprocshared=4
# B3LYP/6-311++G(d,p) empiricaldispersion=gd3bj scf=xqc pop=npa geom=check

CID_55121231_JID_8019_Energie_kation

1 2

--Link1--
%chk=JID_8019.chk
%mem=8GB
%nprocshared=4
# B3LYP/6-311++G(d,p) empiricaldispersion=gd3bj scf=xqc pop=npa geom=check

CID_55121231_JID_8019_Energie_anion

-1 2
