%chk=JID_6811.chk
%mem=8GB
%nprocshared=4
# opt freq B3LYP/6-31G(d) empiricaldispersion=gd3bj scf=xqc

CID_63954392_JID_6811_neutraal

0 1
C          0.92069       -0.05785        0.01904
C          0.07953       -1.12058        0.71760
N          0.76740       -1.75894        1.84250
C         -0.12984       -2.47016        2.75335
C         -0.82093       -3.67813        2.19236
C         -0.60385       -5.04817        2.79035
C         -1.90671       -4.34054        3.00865
C          2.02066       -2.47455        1.53219
C          1.88233       -3.67478        0.58641
O          1.43447       -3.53507       -0.55512
C          2.33349       -4.99763        1.04422
C          2.21535       -6.15706        0.29167
N          2.69743       -7.20864        1.01992
C          3.14731       -6.75772        2.22857
C          2.94033       -5.39510        2.27299
C          2.71238       -8.58266        0.57378
H          1.30634        0.67530        0.73523
H          0.30848        0.48003       -0.71257
H          1.76544       -0.49674       -0.52023
H         -0.81470       -0.60857        1.09589
H         -0.27579       -1.84500       -0.02149
H          0.42667       -2.74142        3.66001
H         -0.89660       -1.76542        3.10069
H         -1.01934       -3.61121        1.12917
H         -0.59176       -5.89679        2.11499
H          0.06259       -5.15363        3.63856
H         -2.11815       -3.96047        4.00157
H         -2.77953       -4.70934        2.48128
H          2.74510       -1.79063        1.07430
H          2.49092       -2.77139        2.47364
H          1.80892       -6.30067       -0.70245
H          3.57232       -7.43178        2.96125
H          3.19396       -4.76882        3.11818
H          3.48885       -8.68543       -0.18808
H          2.92528       -9.23879        1.42155
H          1.73086       -8.82510        0.15799

--Link1--
%chk=JID_6811.chk
%mem=8GB
%nprocshared=4
# B3LYP/6-311++G(d,p) empiricaldispersion=gd3bj scf=xqc pop=npa geom=check

CID_63954392_JID_6811_Energie_neutraal

0 1

--Link1--
%chk=JID_6811.chk
%mem=8GB
%nprocshared=4
# B3LYP/6-311++G(d,p) empiricaldispersion=gd3bj scf=xqc pop=npa geom=check

CID_63954392_JID_6811_Energie_kation

1 2

--Link1--
%chk=JID_6811.chk
%mem=8GB
%nprocshared=4
# B3LYP/6-311++G(d,p) empiricaldispersion=gd3bj scf=xqc pop=npa geom=check

CID_63954392_JID_6811_Energie_anion

-1 2
