%chk=JID_2094.chk
%mem=8GB
%nprocshared=4
# opt freq B3LYP/6-31G(d) empiricaldispersion=gd3bj scf=xqc

CID_146393261_JID_2094_neutraal

0 1
C          0.99010       -0.07307       -0.06755
C          0.60844        1.20071       -0.72492
C          0.84134        2.43289       -0.26661
N          0.44533        3.40610       -1.15427
N         -0.14391        2.80377       -2.30573
C         -0.05735        1.31260       -2.07776
C         -1.48850        0.70409       -2.17612
C         -2.18525        1.09188       -3.49182
C         -1.48471       -0.82775       -2.08900
C          0.65654        3.20288       -3.46835
O          1.37416        2.70615        0.96207
C          2.26737        3.81493        0.94256
H          1.37103       -0.78736       -0.80401
H          0.13704       -0.51550        0.45299
H          1.78258        0.07828        0.67318
H         -0.12286        4.11792       -0.69379
H          0.59204        0.84029       -2.82800
H         -2.10332        1.08638       -1.34986
H         -1.59495        0.77638       -4.35892
H         -3.17114        0.61944       -3.56518
H         -2.34768        2.17199       -3.56053
H         -1.22564       -1.17892       -1.08941
H         -2.47839       -1.23456       -2.30848
H         -0.77884       -1.26429       -2.80350
H          1.71284        2.92504       -3.36909
H          0.26220        2.74129       -4.37994
H          0.60031        4.28796       -3.61171
H          3.04238        3.68727        0.17856
H          1.72427        4.75310        0.78769
H          2.75865        3.86838        1.91868

--Link1--
%chk=JID_2094.chk
%mem=8GB
%nprocshared=4
# B3LYP/6-311++G(d,p) empiricaldispersion=gd3bj scf=xqc pop=npa geom=check

CID_146393261_JID_2094_Energie_neutraal

0 1

--Link1--
%chk=JID_2094.chk
%mem=8GB
%nprocshared=4
# B3LYP/6-311++G(d,p) empiricaldispersion=gd3bj scf=xqc pop=npa geom=check

CID_146393261_JID_2094_Energie_kation

1 2

--Link1--
%chk=JID_2094.chk
%mem=8GB
%nprocshared=4
# B3LYP/6-311++G(d,p) empiricaldispersion=gd3bj scf=xqc pop=npa geom=check

CID_146393261_JID_2094_Energie_anion

-1 2
