%chk=JID_3144.chk
%mem=8GB
%nprocshared=4
# opt freq B3LYP/6-31G(d) empiricaldispersion=gd3bj scf=xqc

CID_104621790_JID_3144_neutraal

0 1
C          1.00232        0.08765        0.04808
C          0.31037       -0.16080       -1.28369
C          0.71983       -1.44817       -1.90798
C          1.60863       -1.64608       -2.94625
N          2.35495       -0.76661       -3.68620
C          3.09589       -1.29785       -4.61306
C          3.20374       -2.74797       -4.93320
C          2.45305       -3.55894       -4.17306
N          1.64771       -3.02839       -3.17360
N          0.83221       -3.69787       -2.32651
C          0.27908       -2.74612       -1.57561
C          4.06807       -3.26914       -6.00648
O          4.16340       -4.45988       -6.27571
H          0.76315       -0.69848        0.77230
H          0.68206        1.04581        0.46931
H          2.09083        0.11424       -0.07129
H         -0.77573       -0.16153       -1.13181
H          0.52912        0.67203       -1.96269
H          3.71294       -0.62738       -5.23468
H          2.42351       -4.63575       -4.28395
H         -0.42845       -3.03504       -0.80813
H          4.63449       -2.50502       -6.56398

--Link1--
%chk=JID_3144.chk
%mem=8GB
%nprocshared=4
# B3LYP/6-311++G(d,p) empiricaldispersion=gd3bj scf=xqc pop=npa geom=check

CID_104621790_JID_3144_Energie_neutraal

0 1

--Link1--
%chk=JID_3144.chk
%mem=8GB
%nprocshared=4
# B3LYP/6-311++G(d,p) empiricaldispersion=gd3bj scf=xqc pop=npa geom=check

CID_104621790_JID_3144_Energie_kation

1 2

--Link1--
%chk=JID_3144.chk
%mem=8GB
%nprocshared=4
# B3LYP/6-311++G(d,p) empiricaldispersion=gd3bj scf=xqc pop=npa geom=check

CID_104621790_JID_3144_Energie_anion

-1 2
