%chk=JID_8093.chk
%mem=8GB
%nprocshared=4
# opt freq B3LYP/6-31G(d) empiricaldispersion=gd3bj scf=xqc

CID_62114902_JID_8093_neutraal

0 1
C          1.05100        0.06935       -0.05089
C          0.12595       -1.13641       -0.12589
C          0.42659       -2.21648        0.93041
C          0.28229       -1.71472        2.41460
C         -1.10504       -1.16327        2.73783
C         -1.24948        0.17676        3.13362
C         -2.50826        0.70495        3.43072
C         -3.64224       -0.09917        3.34199
C         -3.51833       -1.43111        2.95869
C         -2.26065       -1.95935        2.66043
N          0.69420       -2.80063        3.33008
C          0.87872       -2.39550        4.71919
C         -0.25325       -2.85129        5.62893
O         -0.41834       -3.36751        0.72606
C         -0.21336       -4.15824       -0.46600
C         -0.68981       -5.62807       -0.36214
C         -2.03141       -5.17578       -0.96565
C         -1.27961       -3.97951       -1.57674
H          0.88912        0.64964        0.86114
H          0.86588        0.73549       -0.89987
H          2.10079       -0.23825       -0.08607
H         -0.91973       -0.81432       -0.06073
H          0.23017       -1.57345       -1.12583
H          1.46516       -2.55026        0.79685
H          1.01644       -0.90799        2.53635
H         -0.37811        0.82291        3.21422
H         -2.60348        1.74441        3.73243
H         -4.62136        0.31113        3.57343
H         -4.39947       -2.06401        2.89126
H         -2.19117       -3.00461        2.36906
H          0.03250       -3.57074        3.23801
H          1.80126       -2.86921        5.07437
H          1.03655       -1.31566        4.82287
H         -0.40066       -3.93462        5.56601
H         -0.01524       -2.60800        6.66977
H         -1.19821       -2.36037        5.38328
H          0.81997       -4.08016       -0.82377
H         -0.12448       -6.31914       -0.99780
H         -0.74930       -6.04273        0.64765
H         -2.77697       -4.88958       -0.21468
H         -2.49017       -5.86463       -1.67902
H         -1.83402       -3.03725       -1.56909
H         -0.89628       -4.15837       -2.58754

--Link1--
%chk=JID_8093.chk
%mem=8GB
%nprocshared=4
# B3LYP/6-311++G(d,p) empiricaldispersion=gd3bj scf=xqc pop=npa geom=check

CID_62114902_JID_8093_Energie_neutraal

0 1

--Link1--
%chk=JID_8093.chk
%mem=8GB
%nprocshared=4
# B3LYP/6-311++G(d,p) empiricaldispersion=gd3bj scf=xqc pop=npa geom=check

CID_62114902_JID_8093_Energie_kation

1 2

--Link1--
%chk=JID_8093.chk
%mem=8GB
%nprocshared=4
# B3LYP/6-311++G(d,p) empiricaldispersion=gd3bj scf=xqc pop=npa geom=check

CID_62114902_JID_8093_Energie_anion

-1 2
