%chk=JID_3368.chk
%mem=8GB
%nprocshared=4
# opt freq B3LYP/6-31G(d) empiricaldispersion=gd3bj scf=xqc

CID_79872613_JID_3368_neutraal

0 1
C          1.04653       -0.06296       -0.06222
N          0.78555       -1.13493       -1.01928
C         -0.63684       -1.23914       -1.32109
C          1.64576       -1.07070       -2.21318
C          1.36600       -0.02695       -3.30798
N          1.70975        1.32812       -2.95339
C          0.89691        2.43104       -2.85964
N          1.61380        3.45774       -2.48218
C          2.87784        2.94972       -2.38972
N          2.99446        1.65342       -2.69733
O          3.95662        3.68001       -2.03491
C          5.16226        2.93574       -1.93882
N         -0.42548        2.43529       -3.10973
H          0.54199       -0.27666        0.88698
H          0.69597        0.91199       -0.41097
H          2.11575        0.00979        0.16485
H         -1.04338       -0.31929       -1.75423
H         -0.82642       -2.06384       -2.01685
H         -1.20417       -1.46171       -0.41035
H          2.69355       -1.00036       -1.89242
H          1.57413       -2.05538       -2.69506
H          1.97040       -0.26858       -4.19164
H          0.32257       -0.06470       -3.63252
H          5.08766        2.14812       -1.18041
H          5.45438        2.52054       -2.90988
H          5.95372        3.62270       -1.62311
H         -0.83965        3.36454       -3.14324
H         -0.81745        1.82041       -3.81307

--Link1--
%chk=JID_3368.chk
%mem=8GB
%nprocshared=4
# B3LYP/6-311++G(d,p) empiricaldispersion=gd3bj scf=xqc pop=npa geom=check

CID_79872613_JID_3368_Energie_neutraal

0 1

--Link1--
%chk=JID_3368.chk
%mem=8GB
%nprocshared=4
# B3LYP/6-311++G(d,p) empiricaldispersion=gd3bj scf=xqc pop=npa geom=check

CID_79872613_JID_3368_Energie_kation

1 2

--Link1--
%chk=JID_3368.chk
%mem=8GB
%nprocshared=4
# B3LYP/6-311++G(d,p) empiricaldispersion=gd3bj scf=xqc pop=npa geom=check

CID_79872613_JID_3368_Energie_anion

-1 2
