%chk=JID_4695.chk
%mem=8GB
%nprocshared=4
# opt freq B3LYP/6-31G(d) empiricaldispersion=gd3bj scf=xqc

CID_71356452_JID_4695_neutraal

0 1
C          1.05916       -0.08009        0.00924
C          0.39612        0.62731       -1.15564
C          1.11966        0.36497       -2.44404
O          0.67018       -0.21931       -3.41579
O          2.36524        0.87385       -2.46349
C          1.22098        2.86718        2.35206
C          1.12703        1.96974        3.57311
O          2.34269        1.97170        4.31646
C          3.37834        1.13404        3.79061
C          3.10521       -0.35641        4.01822
O          2.44168       -0.90234        2.87293
C          2.06450       -2.27220        3.03505
C          0.65875       -2.40356        3.62550
O          0.64939       -2.18127        5.03345
H          0.47064        0.05858        0.92068
H          2.06649        0.30949        0.18786
H          1.14750       -1.15469       -0.18194
H         -0.63390        0.27038       -1.26613
H          0.34873        1.70838       -0.98868
H          2.70332        0.64144       -3.35345
H          0.25233        2.93392        1.84802
H          1.95540        2.49239        1.63388
H          1.53957        3.87456        2.63910
H          0.81909        0.95645        3.30381
H          0.35324        2.36847        4.23783
H          3.55899        1.36191        2.73537
H          4.28006        1.40666        4.34896
H          4.05984       -0.88257        4.12819
H          2.50215       -0.49956        4.91888
H          2.80930       -2.80941        3.63307
H          2.05893       -2.70619        2.02991
H         -0.02045       -1.67542        3.17191
H          0.26524       -3.40939        3.44897
H          1.20479       -2.86385        5.44580

--Link1--
%chk=JID_4695.chk
%mem=8GB
%nprocshared=4
# B3LYP/6-311++G(d,p) empiricaldispersion=gd3bj scf=xqc pop=npa geom=check

CID_71356452_JID_4695_Energie_neutraal

0 1

--Link1--
%chk=JID_4695.chk
%mem=8GB
%nprocshared=4
# B3LYP/6-311++G(d,p) empiricaldispersion=gd3bj scf=xqc pop=npa geom=check

CID_71356452_JID_4695_Energie_kation

1 2

--Link1--
%chk=JID_4695.chk
%mem=8GB
%nprocshared=4
# B3LYP/6-311++G(d,p) empiricaldispersion=gd3bj scf=xqc pop=npa geom=check

CID_71356452_JID_4695_Energie_anion

-1 2
