%chk=JID_2119.chk
%mem=8GB
%nprocshared=4
# opt freq B3LYP/6-31G(d) empiricaldispersion=gd3bj scf=xqc

CID_142782907_JID_2119_neutraal

0 1
C          0.99836       -0.08073       -0.05899
C          0.49180       -1.45031        0.32319
C          0.30107       -1.73902        1.79086
C         -0.92406       -1.60578        0.90597
C         -1.85040       -0.42723        1.13225
C         -3.19561       -0.90156        0.60059
N         -3.13047       -2.34390        0.68573
C         -1.77258       -2.83375        0.64170
C         -4.18626       -3.18648        0.53046
O         -4.14841       -4.40392        0.46323
O         -5.36556       -2.54669        0.44519
C          1.06102       -2.55350       -0.53704
H          0.74202        0.68248        0.68289
H          0.57688        0.22159       -1.02312
H          2.08994       -0.08730       -0.14919
H          0.50912       -0.95079        2.50771
H          0.56497       -2.72297        2.16618
H         -1.54211        0.49413        0.63203
H         -1.92863       -0.22552        2.20717
H         -3.31597       -0.63733       -0.45635
H         -4.04279       -0.49891        1.16337
H         -1.64346       -3.61756        1.39500
H         -1.59600       -3.25138       -0.35472
H         -5.99911       -3.28552        0.34514
H          0.69097       -2.46051       -1.56324
H          2.15448       -2.49524       -0.55957
H          0.79711       -3.54984       -0.16746

--Link1--
%chk=JID_2119.chk
%mem=8GB
%nprocshared=4
# B3LYP/6-311++G(d,p) empiricaldispersion=gd3bj scf=xqc pop=npa geom=check

CID_142782907_JID_2119_Energie_neutraal

0 1

--Link1--
%chk=JID_2119.chk
%mem=8GB
%nprocshared=4
# B3LYP/6-311++G(d,p) empiricaldispersion=gd3bj scf=xqc pop=npa geom=check

CID_142782907_JID_2119_Energie_kation

1 2

--Link1--
%chk=JID_2119.chk
%mem=8GB
%nprocshared=4
# B3LYP/6-311++G(d,p) empiricaldispersion=gd3bj scf=xqc pop=npa geom=check

CID_142782907_JID_2119_Energie_anion

-1 2
