%chk=JID_3449.chk
%mem=8GB
%nprocshared=4
# opt freq B3LYP/6-31G(d) empiricaldispersion=gd3bj scf=xqc

CID_83482477_JID_3449_neutraal

0 1
C          0.95159       -0.04389        0.07570
N          0.68139       -1.36408       -0.43868
C          1.28689       -2.52764       -0.05423
C          0.66322       -3.51331       -0.77924
C          1.02471       -4.94402       -0.65659
C          1.91192       -5.13397        0.60046
N          2.95312       -4.08595        0.76314
C          2.34704       -2.75203        0.95601
N         -0.28338       -2.99656       -1.60947
C         -0.25694       -1.68743       -1.40617
C         -1.13477       -0.68336       -2.08745
O         -0.78327       -0.58047       -3.47046
C          0.41228        0.14718       -3.70266
H          0.02834        0.35943        0.49932
H          1.30750        0.58308       -0.74513
H          1.71389       -0.09166        0.85590
H          1.58042       -5.25029       -1.55035
H          0.12849       -5.56808       -0.58102
H          2.40329       -6.11185        0.54562
H          1.28544       -5.15217        1.50185
H          3.49402       -4.05221       -0.10190
H          1.92705       -2.68374        1.96580
H          3.13621       -1.99775        0.87303
H         -2.16903       -1.04141       -2.04428
H         -1.11685        0.30545       -1.61906
H          0.34317        1.15132       -3.27332
H          1.27912       -0.37979       -3.29418
H          0.54991        0.24243       -4.78328

--Link1--
%chk=JID_3449.chk
%mem=8GB
%nprocshared=4
# B3LYP/6-311++G(d,p) empiricaldispersion=gd3bj scf=xqc pop=npa geom=check

CID_83482477_JID_3449_Energie_neutraal

0 1

--Link1--
%chk=JID_3449.chk
%mem=8GB
%nprocshared=4
# B3LYP/6-311++G(d,p) empiricaldispersion=gd3bj scf=xqc pop=npa geom=check

CID_83482477_JID_3449_Energie_kation

1 2

--Link1--
%chk=JID_3449.chk
%mem=8GB
%nprocshared=4
# B3LYP/6-311++G(d,p) empiricaldispersion=gd3bj scf=xqc pop=npa geom=check

CID_83482477_JID_3449_Energie_anion

-1 2
