%chk=JID_4853.chk
%mem=8GB
%nprocshared=4
# opt freq B3LYP/6-31G(d) empiricaldispersion=gd3bj scf=xqc

CID_80197182_JID_4853_neutraal

0 1
C          0.97970       -0.07810       -0.05906
N          1.18058       -1.29028        0.73822
C          0.71023       -1.17848        2.13161
C          1.57606       -1.99272        3.08829
C          1.44539       -3.49764        2.87811
N          1.97334       -3.90698        1.57453
C          0.99183       -3.71688        0.55342
C          0.60218       -2.43880        0.11436
N         -0.30592       -2.27193       -0.86800
C         -0.85601       -3.38165       -1.38110
N         -0.60469       -4.64148       -1.01414
C          0.32291       -4.78178       -0.04776
O          0.63914       -6.05657        0.39385
C         -0.00852       -7.08928       -0.33745
H         -0.07496        0.21939       -0.09934
H          1.36323       -0.20428       -1.07839
H          1.54278        0.74997        0.38629
H         -0.35062       -1.44835        2.22688
H          0.78399       -0.13003        2.44946
H          2.62591       -1.68983        2.98577
H          1.27624       -1.75864        4.11686
H          2.04289       -4.00406        3.64501
H          0.41026       -3.83366        3.02260
H          2.73757       -3.27229        1.32435
H         -1.58615       -3.24019       -2.17081
H         -1.09568       -7.04337       -0.21110
H          0.26644       -7.05935       -1.39758
H          0.33191       -8.04780        0.06619

--Link1--
%chk=JID_4853.chk
%mem=8GB
%nprocshared=4
# B3LYP/6-311++G(d,p) empiricaldispersion=gd3bj scf=xqc pop=npa geom=check

CID_80197182_JID_4853_Energie_neutraal

0 1

--Link1--
%chk=JID_4853.chk
%mem=8GB
%nprocshared=4
# B3LYP/6-311++G(d,p) empiricaldispersion=gd3bj scf=xqc pop=npa geom=check

CID_80197182_JID_4853_Energie_kation

1 2

--Link1--
%chk=JID_4853.chk
%mem=8GB
%nprocshared=4
# B3LYP/6-311++G(d,p) empiricaldispersion=gd3bj scf=xqc pop=npa geom=check

CID_80197182_JID_4853_Energie_anion

-1 2
