%chk=JID_3648.chk
%mem=8GB
%nprocshared=4
# opt freq B3LYP/6-31G(d) empiricaldispersion=gd3bj scf=xqc

CID_23171251_JID_3648_neutraal

0 1
C          1.06155        0.05933       -0.05189
C          0.32344       -0.97166       -0.84723
O         -0.70451       -0.75960       -1.47403
O          0.96610       -2.16622       -0.75366
C          0.33305       -3.25212       -1.44845
C          0.87160       -4.57208       -0.89538
C          0.42210       -4.80772        0.52235
C         -0.35941       -5.82380        0.90812
C         -1.68281        0.50196        3.00539
C         -1.57389        1.50921        2.12989
C         -2.45095        1.67239        0.91552
C         -3.33935        2.91394        0.99489
O         -2.56785        4.10848        0.91090
H          1.01097       -0.18614        1.01142
H          0.60663        1.03986       -0.21498
H          2.10186        0.10912       -0.38429
H         -0.75753       -3.21193       -1.33914
H          0.59079       -3.17014       -2.51036
H          0.54372       -5.39362       -1.54267
H          1.96805       -4.55995       -0.90520
H          0.76847       -4.09459        1.26861
H         -0.64893       -5.93523        1.94879
H         -0.73004       -6.56144        0.20337
H         -2.43803       -0.27084        2.89652
H         -1.01131        0.42821        3.85562
H         -0.78966        2.24923        2.27383
H         -1.80181        1.74160        0.03530
H         -3.08610        0.78814        0.78605
H         -4.03779        2.91909        0.15215
H         -3.92639        2.93743        1.91931
H         -2.05853        4.17711        1.73598

--Link1--
%chk=JID_3648.chk
%mem=8GB
%nprocshared=4
# B3LYP/6-311++G(d,p) empiricaldispersion=gd3bj scf=xqc pop=npa geom=check

CID_23171251_JID_3648_Energie_neutraal

0 1

--Link1--
%chk=JID_3648.chk
%mem=8GB
%nprocshared=4
# B3LYP/6-311++G(d,p) empiricaldispersion=gd3bj scf=xqc pop=npa geom=check

CID_23171251_JID_3648_Energie_kation

1 2

--Link1--
%chk=JID_3648.chk
%mem=8GB
%nprocshared=4
# B3LYP/6-311++G(d,p) empiricaldispersion=gd3bj scf=xqc pop=npa geom=check

CID_23171251_JID_3648_Energie_anion

-1 2
