%chk=JID_4417.chk
%mem=8GB
%nprocshared=4
# opt freq B3LYP/6-31G(d) empiricaldispersion=gd3bj scf=xqc

CID_129932386_JID_4417_neutraal

0 1
C          0.70300        1.24700       -0.25500
C         -0.70380        1.21090        0.33385
C         -1.42789       -0.08582       -0.01866
N         -0.63207       -1.26095        0.33242
C          0.71869       -1.28069       -0.20206
C          1.48444       -0.00503        0.14564
O          0.60904       -1.38642       -1.61394
C         -1.32138       -2.43038        0.65613
O         -2.52461       -2.54620        0.42437
C         -0.59477       -3.51603        1.28538
C          0.52090       -3.53645        2.10866
C          0.78150       -4.88125        2.46817
C         -0.20136       -5.65282        1.89490
N         -1.04683       -4.81823        1.21555
H          1.23057        2.14164        0.09399
H          0.64319        1.31617       -1.34784
H         -0.63508        1.29995        1.42543
H         -1.28191        2.07004       -0.02364
H         -1.64985       -0.13006       -1.09164
H         -2.38683       -0.11426        0.51153
H          1.28853       -2.14916        0.12655
H          2.45335        0.00448       -0.36676
H          1.67649        0.02212        1.22526
H         -0.06790       -2.06538       -1.76887
H          1.08682       -2.67141        2.43056
H          1.58609       -5.24379        3.09530
H         -0.38616       -6.71829        1.93148
H         -1.89126       -5.09380        0.72819

--Link1--
%chk=JID_4417.chk
%mem=8GB
%nprocshared=4
# B3LYP/6-311++G(d,p) empiricaldispersion=gd3bj scf=xqc pop=npa geom=check

CID_129932386_JID_4417_Energie_neutraal

0 1

--Link1--
%chk=JID_4417.chk
%mem=8GB
%nprocshared=4
# B3LYP/6-311++G(d,p) empiricaldispersion=gd3bj scf=xqc pop=npa geom=check

CID_129932386_JID_4417_Energie_kation

1 2

--Link1--
%chk=JID_4417.chk
%mem=8GB
%nprocshared=4
# B3LYP/6-311++G(d,p) empiricaldispersion=gd3bj scf=xqc pop=npa geom=check

CID_129932386_JID_4417_Energie_anion

-1 2
