%chk=JID_4964.chk
%mem=8GB
%nprocshared=4
# opt freq B3LYP/6-31G(d) empiricaldispersion=gd3bj scf=xqc

CID_130505195_JID_4964_neutraal

0 1
C         -1.23900       -0.77500       -0.51200
C         -1.45432        0.73284       -0.38405
C         -0.09817        1.20312        0.13682
C          1.03360        1.07940       -0.89555
C          1.20652       -0.44843       -0.98024
C          0.17830       -0.94397        0.03598
O          0.23074        0.10598        1.02826
C          0.80184        1.73096       -2.25914
N          0.60249        3.17641       -2.14066
C          0.33785        3.74676       -3.46497
C          0.17962        5.27973       -3.32514
C         -1.13395        5.17822       -4.12940
C         -1.17381        3.67313       -3.79159
N         -0.85601        5.34765       -5.55732
H         -1.96393       -1.30317        0.11729
H         -1.34503       -1.13843       -1.53843
H         -1.77042        1.20800       -1.31514
H         -2.23097        0.92084        0.36688
H         -0.12540        2.15750        0.66815
H          1.95204        1.49273       -0.45503
H          1.04844       -0.86657       -1.97907
H          2.21867       -0.71473       -0.65385
H          0.39093       -1.92988        0.45493
H          1.68163        1.53839       -2.88633
H         -0.05153        1.26287       -2.76330
H         -0.10888        3.38693       -1.44242
H          1.01286        3.44082       -4.27202
H          0.01455        5.64615       -2.30323
H          0.98438        5.87734       -3.76629
H         -1.97455        5.77123       -3.76109
H         -1.44596        2.98977       -4.60293
H         -1.83137        3.45543       -2.93957
H         -0.69223        6.31801       -5.82520
H         -0.05789        4.82437       -5.91532

--Link1--
%chk=JID_4964.chk
%mem=8GB
%nprocshared=4
# B3LYP/6-311++G(d,p) empiricaldispersion=gd3bj scf=xqc pop=npa geom=check

CID_130505195_JID_4964_Energie_neutraal

0 1

--Link1--
%chk=JID_4964.chk
%mem=8GB
%nprocshared=4
# B3LYP/6-311++G(d,p) empiricaldispersion=gd3bj scf=xqc pop=npa geom=check

CID_130505195_JID_4964_Energie_kation

1 2

--Link1--
%chk=JID_4964.chk
%mem=8GB
%nprocshared=4
# B3LYP/6-311++G(d,p) empiricaldispersion=gd3bj scf=xqc pop=npa geom=check

CID_130505195_JID_4964_Energie_anion

-1 2
