%chk=JID_2707.chk
%mem=8GB
%nprocshared=4
# opt freq B3LYP/6-31G(d) empiricaldispersion=gd3bj scf=xqc

CID_147950889_JID_2707_neutraal

0 1
C          0.96902       -0.01480        0.09392
C          0.03555       -1.16501       -0.23756
C          0.55210       -2.53205        0.21741
C          0.54401       -2.68697        1.74122
C          0.30966       -4.14406        2.24011
C          1.81085       -4.27638        2.57087
C          1.86885       -2.68997        2.58902
C          3.18758       -2.01061        2.13610
C          4.10620       -2.89663        1.25591
C          4.13141       -4.25143        1.87318
C          2.75302       -4.87697        1.55650
C          3.99632       -5.66737        1.43439
H          1.05628        0.12649        1.17495
H          0.58036        0.91718       -0.32939
H          1.96556       -0.18270       -0.32564
H         -0.95040       -0.96865        0.20003
H         -0.10240       -1.19252       -1.32528
H         -0.11823       -3.28222       -0.22093
H          1.54113       -2.71791       -0.20726
H         -0.21306       -2.01783        2.17533
H         -0.33085       -4.19657        3.12964
H         -0.07834       -4.85813        1.50749
H          1.98326       -4.72546        3.55808
H          1.64758       -2.30481        3.59877
H          2.99381       -1.05555        1.64458
H          3.75505       -1.76706        3.04529
H          3.75041       -2.92264        0.22059
H          5.11480       -2.46990        1.23483
H          4.47210       -4.16996        2.90563
H          2.29492       -4.73050        0.57996
H          4.35332       -5.92218        0.44212
H          4.16774       -6.45150        2.16395

--Link1--
%chk=JID_2707.chk
%mem=8GB
%nprocshared=4
# B3LYP/6-311++G(d,p) empiricaldispersion=gd3bj scf=xqc pop=npa geom=check

CID_147950889_JID_2707_Energie_neutraal

0 1

--Link1--
%chk=JID_2707.chk
%mem=8GB
%nprocshared=4
# B3LYP/6-311++G(d,p) empiricaldispersion=gd3bj scf=xqc pop=npa geom=check

CID_147950889_JID_2707_Energie_kation

1 2

--Link1--
%chk=JID_2707.chk
%mem=8GB
%nprocshared=4
# B3LYP/6-311++G(d,p) empiricaldispersion=gd3bj scf=xqc pop=npa geom=check

CID_147950889_JID_2707_Energie_anion

-1 2
