%chk=JID_6197.chk
%mem=8GB
%nprocshared=4
# opt freq B3LYP/6-31G(d) empiricaldispersion=gd3bj scf=xqc

CID_62881194_JID_6197_neutraal

0 1
C          1.08895       -0.04331       -0.01457
C          0.89734       -0.59561        1.35057
N          1.16701       -1.88447        1.58352
N          0.88099       -2.04747        2.88761
C          0.52012       -0.88110        3.51962
C          0.46885        0.08299        2.52927
C          0.08375        1.52327        2.65176
N         -1.35209        1.84521        2.47385
C         -2.26973        1.58748        3.48747
C         -3.58529        1.81728        3.39643
C         -4.10564        2.37719        2.12730
O         -5.29646        2.62752        1.98335
C         -3.12995        2.62284        1.03827
C         -1.84070        2.34640        1.27273
N          0.27936       -0.80494        4.84760
C          1.00165       -3.36144        3.47132
H          0.20772        0.52264       -0.32994
H          1.25430       -0.83750       -0.75016
H          1.95603        0.62436       -0.03411
H          0.40069        1.89292        3.63685
H          0.67867        2.11047        1.93891
H         -1.84528        1.16422        4.39253
H         -4.28945        1.61180        4.18916
H         -3.50346        3.01209        0.10254
H         -1.09343        2.50886        0.50200
H          0.53377       -1.55346        5.48677
H          0.20196        0.09585        5.31167
H          1.00958       -4.11305        2.67736
H          1.93617       -3.39929        4.03596
H          0.14590       -3.53822        4.12763

--Link1--
%chk=JID_6197.chk
%mem=8GB
%nprocshared=4
# B3LYP/6-311++G(d,p) empiricaldispersion=gd3bj scf=xqc pop=npa geom=check

CID_62881194_JID_6197_Energie_neutraal

0 1

--Link1--
%chk=JID_6197.chk
%mem=8GB
%nprocshared=4
# B3LYP/6-311++G(d,p) empiricaldispersion=gd3bj scf=xqc pop=npa geom=check

CID_62881194_JID_6197_Energie_kation

1 2

--Link1--
%chk=JID_6197.chk
%mem=8GB
%nprocshared=4
# B3LYP/6-311++G(d,p) empiricaldispersion=gd3bj scf=xqc pop=npa geom=check

CID_62881194_JID_6197_Energie_anion

-1 2
