%chk=JID_9113.chk
%mem=8GB
%nprocshared=4
# opt freq B3LYP/6-31G(d) empiricaldispersion=gd3bj scf=xqc

CID_61450692_JID_9113_neutraal

0 1
C          0.94002        0.05533       -0.05781
C          1.14843       -1.21545       -0.86853
N          1.69383       -2.31426       -0.07510
C          0.97816       -3.58896       -0.32215
C          1.25916       -4.30533       -1.62459
C          2.15534       -5.38045       -1.66372
C          2.38918       -6.01626       -2.87324
N          1.79671       -5.66444       -4.03280
C          0.93014       -4.63167       -3.97713
C          0.62994       -3.93417       -2.81635
C          3.17038       -2.47649        0.03004
C          3.99129       -2.37910       -1.28929
C          4.85894       -1.13352       -1.53969
C          5.55967       -0.65606       -0.27144
C          4.59210       -0.46526        0.88641
C          3.87772       -1.77547        1.23811
C          3.02127       -1.58518        2.50565
N          2.49439       -2.84439        3.02899
C          4.11804        0.00961       -2.23254
H          0.29724       -0.13393        0.80870
H          0.44526        0.81271       -0.67532
H          1.87351        0.48561        0.29720
H          0.14250       -1.47198       -1.22518
H          1.71922       -1.02397       -1.77733
H          1.18882       -4.27780        0.50708
H         -0.10556       -3.42627       -0.23802
H          2.66934       -5.71901       -0.76984
H          3.08050       -6.85136       -2.94085
H          0.46355       -4.36958       -4.92239
H         -0.08505       -3.12043       -2.85129
H          3.28744       -3.53323        0.31624
H          3.36566       -2.57001       -2.16753
H          4.68873       -3.23089       -1.27016
H          5.64409       -1.43739       -2.24668
H          6.09517        0.28180       -0.46202
H          6.32174       -1.39201        0.01611
H          3.88324        0.33257        0.66220
H          5.16593       -0.12074        1.75639
H          4.68530       -2.46536        1.53552
H          3.63659       -1.13307        3.29242
H          2.19423       -0.89345        2.32080
H          1.94821       -2.64784        3.86680
H          1.82356       -3.19727        2.34551
H          4.82579        0.78711       -2.54184
H          3.60902       -0.34401       -3.13510
H          3.38264        0.48692       -1.58322

--Link1--
%chk=JID_9113.chk
%mem=8GB
%nprocshared=4
# B3LYP/6-311++G(d,p) empiricaldispersion=gd3bj scf=xqc pop=npa geom=check

CID_61450692_JID_9113_Energie_neutraal

0 1

--Link1--
%chk=JID_9113.chk
%mem=8GB
%nprocshared=4
# B3LYP/6-311++G(d,p) empiricaldispersion=gd3bj scf=xqc pop=npa geom=check

CID_61450692_JID_9113_Energie_kation

1 2

--Link1--
%chk=JID_9113.chk
%mem=8GB
%nprocshared=4
# B3LYP/6-311++G(d,p) empiricaldispersion=gd3bj scf=xqc pop=npa geom=check

CID_61450692_JID_9113_Energie_anion

-1 2
