%chk=JID_3132.chk
%mem=8GB
%nprocshared=4
# opt freq B3LYP/6-31G(d) empiricaldispersion=gd3bj scf=xqc

CID_62138964_JID_3132_neutraal

0 1
C          1.07820       -0.02641       -0.05646
C          0.48089       -0.21855       -1.44011
N          0.95452       -1.43098       -2.07513
C          2.00848       -1.49299       -2.94881
C          2.09997       -2.81753       -3.29692
N          1.13594       -3.55271       -2.66065
C          0.44751       -2.70311       -1.93175
N         -0.61143       -2.96879       -1.13636
C         -0.90700       -4.35344       -0.79685
C         -0.14484       -4.78406        0.44933
C         -0.59485       -4.15661        1.79724
C         -0.31368       -5.52655        2.44610
C         -0.54813       -6.15392        1.05663
H          0.81720       -0.85540        0.60963
H          0.70676        0.90032        0.39159
H          2.17087        0.03125       -0.10389
H         -0.61246       -0.25784       -1.39491
H          0.74799        0.62461       -2.08732
H          2.58199       -0.62435       -3.23853
H          2.80684       -3.28184       -3.97147
H         -0.92144       -2.29604       -0.44702
H         -1.98696       -4.43266       -0.62391
H         -0.68485       -5.02931       -1.63188
H          0.94336       -4.71485        0.30334
H          0.01541       -3.32599        2.16119
H         -1.65110       -3.86448        1.83354
H         -1.00985       -5.83351        3.23046
H          0.71274       -5.63771        2.81386
H         -1.59015       -6.44376        0.87755
H          0.10273       -6.99470        0.80291

--Link1--
%chk=JID_3132.chk
%mem=8GB
%nprocshared=4
# B3LYP/6-311++G(d,p) empiricaldispersion=gd3bj scf=xqc pop=npa geom=check

CID_62138964_JID_3132_Energie_neutraal

0 1

--Link1--
%chk=JID_3132.chk
%mem=8GB
%nprocshared=4
# B3LYP/6-311++G(d,p) empiricaldispersion=gd3bj scf=xqc pop=npa geom=check

CID_62138964_JID_3132_Energie_kation

1 2

--Link1--
%chk=JID_3132.chk
%mem=8GB
%nprocshared=4
# B3LYP/6-311++G(d,p) empiricaldispersion=gd3bj scf=xqc pop=npa geom=check

CID_62138964_JID_3132_Energie_anion

-1 2
