%chk=JID_5385.chk
%mem=8GB
%nprocshared=4
# opt freq B3LYP/6-31G(d) empiricaldispersion=gd3bj scf=xqc

CID_65920968_JID_5385_neutraal

0 1
C          2.49600       -0.00700       -0.12600
C          1.01992       -0.16415        0.23695
C          0.20307        1.01400       -0.30220
C         -1.27894        0.84913        0.01270
C         -1.81708       -0.47753       -0.51454
C         -1.01788       -1.68299        0.02101
C          0.47423       -1.50361       -0.28782
C         -1.66105       -3.01791       -0.45296
C         -0.99100       -4.32361        0.01093
C         -0.14586       -5.08949       -1.02141
C         -0.78118       -4.97906       -2.40812
C         -1.11096       -3.53900       -2.74863
O         -2.04981       -3.01102       -1.82704
N          1.25075       -4.63352       -0.98697
C          2.18534       -5.62543       -1.50240
H          2.64088        0.00138       -1.21164
H          2.89718        0.92904        0.27657
H          3.08746       -0.83038        0.28808
H          0.94229       -0.16623        1.33254
H          0.56418        1.95242        0.13511
H          0.33623        1.09716       -1.38845
H         -1.84348        1.67719       -0.43070
H         -1.43286        0.90235        1.09742
H         -1.78325       -0.46061       -1.61114
H         -2.87151       -0.57226       -0.22862
H         -1.10616       -1.67526        1.11781
H          0.64953       -1.56063       -1.36627
H          1.04517       -2.30494        0.18981
H         -2.62973       -3.01519        0.06904
H         -1.81177       -5.00712        0.27758
H         -0.44406       -4.17332        0.95020
H         -0.15970       -6.14436       -0.71540
H         -0.14064       -5.41419       -3.18211
H         -1.71151       -5.56221       -2.40400
H         -0.22247       -2.90587       -2.79686
H         -1.57605       -3.50030       -3.73940
H          1.36260       -3.76874       -1.51178
H          2.01192       -5.84478       -2.55976
H          3.20604       -5.24180       -1.40664
H          2.13338       -6.55642       -0.92886

--Link1--
%chk=JID_5385.chk
%mem=8GB
%nprocshared=4
# B3LYP/6-311++G(d,p) empiricaldispersion=gd3bj scf=xqc pop=npa geom=check

CID_65920968_JID_5385_Energie_neutraal

0 1

--Link1--
%chk=JID_5385.chk
%mem=8GB
%nprocshared=4
# B3LYP/6-311++G(d,p) empiricaldispersion=gd3bj scf=xqc pop=npa geom=check

CID_65920968_JID_5385_Energie_kation

1 2

--Link1--
%chk=JID_5385.chk
%mem=8GB
%nprocshared=4
# B3LYP/6-311++G(d,p) empiricaldispersion=gd3bj scf=xqc pop=npa geom=check

CID_65920968_JID_5385_Energie_anion

-1 2
