%chk=JID_5605.chk
%mem=8GB
%nprocshared=4
# opt freq B3LYP/6-31G(d) empiricaldispersion=gd3bj scf=xqc

CID_63040791_JID_5605_neutraal

0 1
C          0.95391        0.06950       -0.05519
C          0.43889        0.75525        1.19893
N          0.56941        2.19847        1.04619
C          0.15799        2.95889        2.24686
C          0.96993        2.68283        3.52236
C          2.47940        2.84271        3.35683
O          3.08331        2.70053        4.64090
C          4.19522        3.55951        4.91189
C          5.31615        3.42321        3.88539
C          3.73860        5.00571        5.09056
C          0.18884        4.47368        1.96258
O         -0.57034        5.28004        2.48554
O          1.23139        4.80445        1.14130
C          1.40651        6.20382        0.88064
C          0.61271        6.60431       -0.34691
H          0.40278        0.39675       -0.94345
H          0.83529       -1.01535        0.03264
H          2.01728        0.27920       -0.21418
H         -0.61221        0.48635        1.35135
H          1.01445        0.38352        2.05212
H          1.51799        2.45956        0.77712
H         -0.89737        2.72394        2.43814
H          0.63604        3.36171        4.31904
H          0.75514        1.67656        3.90314
H          2.88551        2.05903        2.70875
H          2.71452        3.80948        2.90937
H          4.59002        3.22175        5.87719
H          5.59733        2.37213        3.76264
H          5.01512        3.79102        2.89911
H          6.20026        3.98819        4.19760
H          4.55320        5.62906        5.47139
H          3.39123        5.44679        4.15094
H          2.89948        5.05567        5.79279
H          1.13666        6.81380        1.75020
H          2.47443        6.36322        0.69842
H         -0.45833        6.44221       -0.19045
H          0.77716        7.65821       -0.58813
H          0.90545        5.99511       -1.20841

--Link1--
%chk=JID_5605.chk
%mem=8GB
%nprocshared=4
# B3LYP/6-311++G(d,p) empiricaldispersion=gd3bj scf=xqc pop=npa geom=check

CID_63040791_JID_5605_Energie_neutraal

0 1

--Link1--
%chk=JID_5605.chk
%mem=8GB
%nprocshared=4
# B3LYP/6-311++G(d,p) empiricaldispersion=gd3bj scf=xqc pop=npa geom=check

CID_63040791_JID_5605_Energie_kation

1 2

--Link1--
%chk=JID_5605.chk
%mem=8GB
%nprocshared=4
# B3LYP/6-311++G(d,p) empiricaldispersion=gd3bj scf=xqc pop=npa geom=check

CID_63040791_JID_5605_Energie_anion

-1 2
