%chk=JID_10972.chk
%mem=8GB
%nprocshared=4
# opt freq B3LYP/6-31G(d) empiricaldispersion=gd3bj scf=xqc

CID_123585530_JID_10972_neutraal

0 1
C          1.85400        1.50000       -0.02200
C          0.59852        0.67954        0.12828
C          0.60001       -0.72418       -0.04523
C         -0.61208       -1.44228        0.10736
C         -1.79849       -0.74829        0.40155
C         -1.79543        0.63420        0.54923
C         -0.60494        1.34138        0.41502
C         -0.67743       -2.90763       -0.00156
N         -0.22839       -3.69608        0.97415
C         -0.43359       -5.10754        0.63029
C         -1.35676       -5.02606       -0.58872
N         -1.26737       -3.60509       -0.97242
C         -1.78345       -3.12743       -2.15040
C         -1.20717       -2.06105       -2.85478
C         -1.74419       -1.60416       -4.06451
C         -2.86835       -2.21665       -4.60448
C         -3.44856       -3.29027       -3.94070
C         -2.90549       -3.74278       -2.73247
C          0.37855       -3.28311        2.23678
C          1.88834       -1.43020       -0.39273
H          2.65768        1.09074        0.59821
H          2.17045        1.51589       -1.06956
H          1.69727        2.53577        0.29787
H         -2.73717       -1.28713        0.51740
H         -2.71879        1.16521        0.77125
H         -0.62201        2.42431        0.53466
H         -0.89624       -5.65024        1.45946
H          0.53164       -5.55631        0.37688
H         -1.01755       -5.68024       -1.39794
H         -2.38598       -5.26817       -0.30385
H         -0.30072       -1.57726       -2.50956
H         -1.27528       -0.77338       -4.58873
H         -3.28682       -1.86155       -5.54424
H         -4.32807       -3.77431       -4.36108
H         -3.40814       -4.57226       -2.24430
H          1.42075       -3.00285        2.06765
H         -0.17308       -2.44292        2.66706
H          0.34913       -4.11320        2.94892
H          2.56512       -1.42159        0.46720
H          1.72931       -2.47092       -0.68857
H          2.37560       -0.94043       -1.24219

--Link1--
%chk=JID_10972.chk
%mem=8GB
%nprocshared=4
# B3LYP/6-311++G(d,p) empiricaldispersion=gd3bj scf=xqc pop=npa geom=check

CID_123585530_JID_10972_Energie_neutraal

0 1

--Link1--
%chk=JID_10972.chk
%mem=8GB
%nprocshared=4
# B3LYP/6-311++G(d,p) empiricaldispersion=gd3bj scf=xqc pop=npa geom=check

CID_123585530_JID_10972_Energie_kation

1 2

--Link1--
%chk=JID_10972.chk
%mem=8GB
%nprocshared=4
# B3LYP/6-311++G(d,p) empiricaldispersion=gd3bj scf=xqc pop=npa geom=check

CID_123585530_JID_10972_Energie_anion

-1 2
