%chk=JID_6092.chk
%mem=8GB
%nprocshared=4
# opt freq B3LYP/6-31G(d) empiricaldispersion=gd3bj scf=xqc

CID_143839474_JID_6092_neutraal

0 1
C          1.00126       -0.09804       -0.01968
N          1.09903        0.77171       -1.18535
C         -0.17331        0.83821       -1.89111
C          1.42618        0.15943        3.72559
O          0.08078       -0.28644        3.83406
C         -0.01224       -1.64623        4.25829
C          0.09328       -2.60034        3.08843
C          1.20912       -3.45103        3.01138
C          1.35930       -4.34105        1.95041
C          0.39902       -4.39213        0.94497
C         -0.71929       -3.54784        0.98503
C         -0.88760       -2.65970        2.07140
C         -2.08854       -1.73530        2.08211
C         -3.17011       -2.13729        1.07206
N         -2.59730       -2.45641       -0.23883
C         -1.75467       -3.65090       -0.11348
H          0.73640       -1.11807       -0.31310
H          0.26452        0.27652        0.69734
H          1.97203       -0.14227        0.48284
H          1.36275        1.70831       -0.88116
H         -0.96473        1.24710       -1.25452
H         -0.07186        1.49032       -2.76415
H         -0.47822       -0.14965       -2.25160
H          1.41669        1.19000        3.36036
H          1.99005       -0.45353        3.01708
H          1.91239        0.14361        4.70572
H          0.73780       -1.85992        5.03025
H         -0.98572       -1.78283        4.74183
H          1.97611       -3.42305        3.78255
H          2.22679       -4.99442        1.90637
H          0.52751       -5.09286        0.12270
H         -1.74201       -0.72209        1.84567
H         -2.54532       -1.71700        3.07736
H         -3.88412       -1.31356        0.96111
H         -3.74390       -2.99513        1.44614
H         -1.99730       -1.68452       -0.53005
H         -2.38359       -4.53067        0.07054
H         -1.25317       -3.80692       -1.07580

--Link1--
%chk=JID_6092.chk
%mem=8GB
%nprocshared=4
# B3LYP/6-311++G(d,p) empiricaldispersion=gd3bj scf=xqc pop=npa geom=check

CID_143839474_JID_6092_Energie_neutraal

0 1

--Link1--
%chk=JID_6092.chk
%mem=8GB
%nprocshared=4
# B3LYP/6-311++G(d,p) empiricaldispersion=gd3bj scf=xqc pop=npa geom=check

CID_143839474_JID_6092_Energie_kation

1 2

--Link1--
%chk=JID_6092.chk
%mem=8GB
%nprocshared=4
# B3LYP/6-311++G(d,p) empiricaldispersion=gd3bj scf=xqc pop=npa geom=check

CID_143839474_JID_6092_Energie_anion

-1 2
