%chk=JID_10358.chk
%mem=8GB
%nprocshared=4
# opt freq B3LYP/6-31G(d) empiricaldispersion=gd3bj scf=xqc

CID_102822112_JID_10358_neutraal

0 1
C          2.19200       -0.00900       -0.03500
N          1.11646        0.33150       -0.94128
C          0.27919       -0.60994       -1.48980
C         -0.69679        0.04598       -2.20115
C         -0.42897        1.42797       -2.09129
C          0.73541        1.59548       -1.35234
C          1.33899        2.86385       -0.99805
O          0.67276        3.77412       -0.50268
N          2.67972        3.08504       -1.16874
C          3.68818        2.43219       -1.86936
N          4.92358        2.85461       -1.53432
C          5.97576        2.23956       -2.11171
C          5.85477        1.19676       -3.01080
C          4.57576        0.77197       -3.36642
C          3.47758        1.44515       -2.82066
C          4.43884       -0.35828       -4.30007
C          3.36391       -1.16039       -4.37288
C          3.27568       -2.32644       -5.26355
O          2.29149       -3.03363       -5.37266
O          4.40395       -2.57927       -5.94371
H          1.82624       -0.76449        0.66647
H          3.02213       -0.41404       -0.61732
H          2.50301        0.87228        0.52867
H          0.42509       -1.66658       -1.30305
H         -1.52369       -0.41874       -2.72301
H         -1.01511        2.23612       -2.51294
H          3.00884        3.91313       -0.69066
H          6.95173        2.61042       -1.81083
H          6.74652        0.72862       -3.41462
H          2.47804        1.19551       -3.14975
H          5.30559       -0.55906       -4.92754
H          2.48087       -1.01954       -3.76016
H          4.18548       -3.38217       -6.46122

--Link1--
%chk=JID_10358.chk
%mem=8GB
%nprocshared=4
# B3LYP/6-311++G(d,p) empiricaldispersion=gd3bj scf=xqc pop=npa geom=check

CID_102822112_JID_10358_Energie_neutraal

0 1

--Link1--
%chk=JID_10358.chk
%mem=8GB
%nprocshared=4
# B3LYP/6-311++G(d,p) empiricaldispersion=gd3bj scf=xqc pop=npa geom=check

CID_102822112_JID_10358_Energie_kation

1 2

--Link1--
%chk=JID_10358.chk
%mem=8GB
%nprocshared=4
# B3LYP/6-311++G(d,p) empiricaldispersion=gd3bj scf=xqc pop=npa geom=check

CID_102822112_JID_10358_Energie_anion

-1 2
