%chk=JID_4926.chk
%mem=8GB
%nprocshared=4
# opt freq B3LYP/6-31G(d) empiricaldispersion=gd3bj scf=xqc

CID_112545713_JID_4926_neutraal

0 1
C          1.06457        0.06340        0.04257
C         -0.18928        0.85353       -0.34056
C          0.11727        2.35341       -0.58515
N          0.69648        2.63210       -1.90428
C         -0.21891        2.11954       -2.94066
C         -0.55987        0.59125       -2.80354
N         -0.94188        0.18354       -1.42290
C          0.68918       -0.21883       -3.22926
C         -1.76159        0.23980       -3.69000
C         -3.07711        0.69886       -3.63883
N         -3.74310        0.06384       -4.65390
N         -2.97526       -0.75764       -5.37504
C         -1.78429       -0.66875       -4.78495
C         -3.80358        1.64042       -2.75213
H          0.85168       -1.00888        0.11391
H          1.42116        0.38730        1.02734
H          1.89187        0.20790       -0.65457
H         -0.83966        0.80808        0.54363
H         -0.81008        2.93074       -0.47471
H          0.80570        2.71982        0.18514
H          0.80783        3.63802       -2.02233
H          0.23553        2.30494       -3.92226
H         -1.12960        2.72897       -2.91841
H         -1.92128        0.42805       -1.29694
H          0.54965       -1.29409       -3.06445
H          0.90765       -0.07635       -4.29490
H          1.59338        0.08627       -2.69898
H         -4.72144        0.14772       -4.90869
H         -0.97515       -1.27109       -5.17831
H         -4.35052        2.38181       -3.34411
H         -4.52476        1.09627       -2.13343
H         -3.13235        2.18170       -2.08165

--Link1--
%chk=JID_4926.chk
%mem=8GB
%nprocshared=4
# B3LYP/6-311++G(d,p) empiricaldispersion=gd3bj scf=xqc pop=npa geom=check

CID_112545713_JID_4926_Energie_neutraal

0 1

--Link1--
%chk=JID_4926.chk
%mem=8GB
%nprocshared=4
# B3LYP/6-311++G(d,p) empiricaldispersion=gd3bj scf=xqc pop=npa geom=check

CID_112545713_JID_4926_Energie_kation

1 2

--Link1--
%chk=JID_4926.chk
%mem=8GB
%nprocshared=4
# B3LYP/6-311++G(d,p) empiricaldispersion=gd3bj scf=xqc pop=npa geom=check

CID_112545713_JID_4926_Energie_anion

-1 2
