%chk=JID_8869.chk
%mem=8GB
%nprocshared=4
# opt freq B3LYP/6-31G(d) empiricaldispersion=gd3bj scf=xqc

CID_66105688_JID_8869_neutraal

0 1
C          1.08132        0.05525        0.01830
C          0.26335        1.29966       -0.31322
C          0.63616        1.98711       -1.63690
C          1.03506        1.07137       -2.78856
O          1.27527        1.85473       -3.95244
S         -1.55164        1.02860       -0.08536
C         -1.97723       -0.06307       -1.44017
C         -1.73882       -1.43743       -1.30560
C         -2.07082       -2.30761       -2.34262
C         -2.66935       -1.82183       -3.50392
C         -2.94926       -0.46002       -3.62273
C         -2.58154        0.43904       -2.61429
N         -3.01122        1.77177       -2.70527
O         -3.07067       -2.61451       -4.54233
C         -2.57643       -3.94465       -4.50961
C         -2.09885       -4.56200       -3.19605
O         -1.90473       -5.76630       -3.04997
N         -1.83178       -3.67267       -2.19400
H          0.93882       -0.75029       -0.70709
H          0.82880       -0.33245        1.01148
H          2.14968        0.29904        0.02928
H          0.48847        2.03065        0.47429
H         -0.15145        2.68086       -1.95659
H          1.50066        2.63871       -1.44340
H          1.96348        0.53952       -2.56020
H          0.27217        0.33074       -3.03053
H          0.42132        2.22477       -4.23493
H         -1.30577       -1.82456       -0.38734
H         -3.47293       -0.10494       -4.50658
H         -3.10142        2.14848       -3.64155
H         -2.56524        2.39459       -2.03621
H         -1.74089       -4.00557       -5.21691
H         -3.37817       -4.58737       -4.89008
H         -1.46767       -4.05372       -1.33078

--Link1--
%chk=JID_8869.chk
%mem=8GB
%nprocshared=4
# B3LYP/6-311++G(d,p) empiricaldispersion=gd3bj scf=xqc pop=npa geom=check

CID_66105688_JID_8869_Energie_neutraal

0 1

--Link1--
%chk=JID_8869.chk
%mem=8GB
%nprocshared=4
# B3LYP/6-311++G(d,p) empiricaldispersion=gd3bj scf=xqc pop=npa geom=check

CID_66105688_JID_8869_Energie_kation

1 2

--Link1--
%chk=JID_8869.chk
%mem=8GB
%nprocshared=4
# B3LYP/6-311++G(d,p) empiricaldispersion=gd3bj scf=xqc pop=npa geom=check

CID_66105688_JID_8869_Energie_anion

-1 2
