%chk=JID_10046.chk
%mem=8GB
%nprocshared=4
# opt freq B3LYP/6-31G(d) empiricaldispersion=gd3bj scf=xqc

CID_3144703_JID_10046_neutraal

0 1
C          1.06004        0.03982        0.06936
C         -0.01186       -0.80295        0.76890
C         -1.44743       -0.39752        0.40239
C         -1.97428       -0.92240       -0.95685
C         -1.67408       -2.44156       -1.04778
C         -0.19246       -2.72570       -0.73678
N          0.26068       -2.23349        0.57030
C         -0.24766       -3.05199        1.67154
C         -2.04232       -3.11606       -2.37506
C         -1.38339       -0.11807       -2.05164
C         -0.92557        0.54018       -2.94649
O         -3.41272       -0.67428       -0.85282
C         -4.23724       -0.67694       -1.92208
O         -3.95950       -0.93406       -3.08031
C         -5.61593       -0.34600       -1.47760
C         -6.68916       -0.74901       -2.28262
C         -7.99955       -0.44878       -1.90610
C         -8.24202        0.26316       -0.73149
C         -7.17736        0.67642        0.06932
C         -5.86525        0.37311       -0.30031
H          0.85776        1.10853        0.19840
H          1.13842       -0.16302       -1.00115
H          2.04540       -0.16138        0.50609
H          0.11645       -0.56852        1.83544
H         -2.11464       -0.77112        1.19383
H         -1.55174        0.69568        0.45243
H         -2.28985       -2.94688       -0.29053
H          0.44093       -2.29261       -1.52120
H          0.00002       -3.80536       -0.79531
H         -1.33379       -2.98683        1.78943
H          0.01913       -4.10466        1.52486
H          0.21523       -2.74801        2.61713
H         -1.69670       -4.15623       -2.38776
H         -3.12555       -3.15529       -2.51246
H         -1.59205       -2.61118       -3.23478
H         -0.53266        1.11820       -3.75086
H         -6.50673       -1.29900       -3.20391
H         -8.83026       -0.76696       -2.53127
H         -9.26303        0.50081       -0.44220
H         -7.36914        1.23928        0.97965
H         -5.04676        0.71316        0.32899

--Link1--
%chk=JID_10046.chk
%mem=8GB
%nprocshared=4
# B3LYP/6-311++G(d,p) empiricaldispersion=gd3bj scf=xqc pop=npa geom=check

CID_3144703_JID_10046_Energie_neutraal

0 1

--Link1--
%chk=JID_10046.chk
%mem=8GB
%nprocshared=4
# B3LYP/6-311++G(d,p) empiricaldispersion=gd3bj scf=xqc pop=npa geom=check

CID_3144703_JID_10046_Energie_kation

1 2

--Link1--
%chk=JID_10046.chk
%mem=8GB
%nprocshared=4
# B3LYP/6-311++G(d,p) empiricaldispersion=gd3bj scf=xqc pop=npa geom=check

CID_3144703_JID_10046_Energie_anion

-1 2
