%chk=JID_2848.chk
%mem=8GB
%nprocshared=4
# opt freq B3LYP/6-31G(d) empiricaldispersion=gd3bj scf=xqc

CID_150264471_JID_2848_neutraal

0 1
C          1.00400       -0.95700        0.00000
C         -0.47042       -1.22406        0.00155
C         -1.38662       -0.24103       -0.00348
O         -1.04632        1.10005        0.02230
C          0.29807        1.40752        0.44719
C          1.32813        0.51584       -0.30626
N          1.32050        0.76844       -1.76794
N          0.59233        1.33447        1.89306
N         -0.38189        1.49043        2.64676
N         -1.24925        1.62001        3.37498
C         -2.87114       -0.50545       -0.05619
N         -3.56098        0.05640        1.09876
H          1.49742       -1.61863       -0.72211
H          1.40263       -1.22598        0.98611
H         -0.78223       -2.26484       -0.00248
H          0.46827        2.44970        0.14813
H          2.34194        0.73607        0.04887
H          1.86154        0.04756       -2.24268
H          0.35919        0.66508       -2.10189
H         -3.27943       -0.05883       -0.96959
H         -3.07548       -1.58108       -0.10450
H         -4.54364       -0.20355        1.06508
H         -3.17984       -0.34821        1.95149

--Link1--
%chk=JID_2848.chk
%mem=8GB
%nprocshared=4
# B3LYP/6-311++G(d,p) empiricaldispersion=gd3bj scf=xqc pop=npa geom=check

CID_150264471_JID_2848_Energie_neutraal

0 1

--Link1--
%chk=JID_2848.chk
%mem=8GB
%nprocshared=4
# B3LYP/6-311++G(d,p) empiricaldispersion=gd3bj scf=xqc pop=npa geom=check

CID_150264471_JID_2848_Energie_kation

1 2

--Link1--
%chk=JID_2848.chk
%mem=8GB
%nprocshared=4
# B3LYP/6-311++G(d,p) empiricaldispersion=gd3bj scf=xqc pop=npa geom=check

CID_150264471_JID_2848_Energie_anion

-1 2
