%chk=JID_5228.chk
%mem=8GB
%nprocshared=4
# opt freq B3LYP/6-31G(d) empiricaldispersion=gd3bj scf=xqc

CID_81121272_JID_5228_neutraal

0 1
C          1.07964        0.06045       -0.00178
C          0.86654       -0.27852        1.46603
C          0.96774        0.94199        2.40134
C         -0.07364        2.03610        2.09433
O         -1.40389        1.53985        2.23112
N          0.79491        0.50765        3.79353
C          1.66592       -0.22061        4.57176
O          1.18779       -0.88557        5.49034
C          3.08421       -0.15395        4.27916
C          3.87983        0.95052        4.02975
C          5.24070        0.59731        3.79314
C          5.44004       -0.75996        3.89258
S          4.00372       -1.59886        4.28422
O          6.29943        1.39404        3.50391
C          6.01126        2.78535        3.48132
H          0.27076        0.68462       -0.39211
H          1.10451       -0.85718       -0.59843
H          2.02829        0.58592       -0.14973
H         -0.10398       -0.77504        1.58708
H          1.62049       -1.02081        1.75539
H          1.96047        1.38460        2.28905
H          0.03656        2.86315        2.80430
H          0.04852        2.44977        1.08877
H         -1.59743        0.98427        1.45647
H         -0.16841        0.35681        4.07831
H          3.48542        1.95816        4.03171
H          6.36851       -1.29958        3.76870
H          5.28846        3.02585        2.69426
H          5.65705        3.13277        4.45782
H          6.94046        3.31694        3.25453

--Link1--
%chk=JID_5228.chk
%mem=8GB
%nprocshared=4
# B3LYP/6-311++G(d,p) empiricaldispersion=gd3bj scf=xqc pop=npa geom=check

CID_81121272_JID_5228_Energie_neutraal

0 1

--Link1--
%chk=JID_5228.chk
%mem=8GB
%nprocshared=4
# B3LYP/6-311++G(d,p) empiricaldispersion=gd3bj scf=xqc pop=npa geom=check

CID_81121272_JID_5228_Energie_kation

1 2

--Link1--
%chk=JID_5228.chk
%mem=8GB
%nprocshared=4
# B3LYP/6-311++G(d,p) empiricaldispersion=gd3bj scf=xqc pop=npa geom=check

CID_81121272_JID_5228_Energie_anion

-1 2
