%chk=JID_1901.chk
%mem=8GB
%nprocshared=4
# opt freq B3LYP/6-31G(d) empiricaldispersion=gd3bj scf=xqc

CID_79278630_JID_1901_neutraal

0 1
C          0.92765        0.02918       -0.06256
C          0.24344       -1.32468       -0.17524
C          0.59241       -2.28360        0.96792
C          0.19121       -1.81545        2.37195
N         -1.25853       -1.70195        2.50517
C         -1.67657       -1.28234        3.85106
C         -1.30050        0.16585        4.24515
N         -1.63701        1.12609        3.18695
C         -1.30906        2.50365        3.53814
C          0.15939        2.78498        3.41361
C          0.69980        3.59240        2.49080
H          0.56963        0.59110        0.80351
H          0.72055        0.62948       -0.95433
H          2.01279       -0.08512        0.02352
H         -0.84062       -1.18262       -0.24210
H          0.55208       -1.79068       -1.11902
H          0.12231       -3.25437        0.76418
H          1.67530       -2.46154        0.96014
H          0.56167       -2.55509        3.09203
H          0.69077       -0.86815        2.59766
H         -1.63711       -1.03620        1.83328
H         -2.76928       -1.37299        3.88762
H         -1.28962       -1.98121        4.60231
H         -1.83922        0.42034        5.16556
H         -0.22891        0.20084        4.47074
H         -1.13500        0.88238        2.33581
H         -1.87167        3.16083        2.86434
H         -1.65142        2.74688        4.55081
H          0.81567        2.31290        4.14042
H          1.77161        3.76276        2.46015
H          0.09067        4.09618        1.74632

--Link1--
%chk=JID_1901.chk
%mem=8GB
%nprocshared=4
# B3LYP/6-311++G(d,p) empiricaldispersion=gd3bj scf=xqc pop=npa geom=check

CID_79278630_JID_1901_Energie_neutraal

0 1

--Link1--
%chk=JID_1901.chk
%mem=8GB
%nprocshared=4
# B3LYP/6-311++G(d,p) empiricaldispersion=gd3bj scf=xqc pop=npa geom=check

CID_79278630_JID_1901_Energie_kation

1 2

--Link1--
%chk=JID_1901.chk
%mem=8GB
%nprocshared=4
# B3LYP/6-311++G(d,p) empiricaldispersion=gd3bj scf=xqc pop=npa geom=check

CID_79278630_JID_1901_Energie_anion

-1 2
