%chk=JID_9238.chk
%mem=8GB
%nprocshared=4
# opt freq B3LYP/6-31G(d) empiricaldispersion=gd3bj scf=xqc

CID_62005337_JID_9238_neutraal

0 1
C          1.06102       -0.05743        0.05458
O          0.29557       -0.56123        1.14403
C          1.01705       -1.27182        2.05563
O          2.19789       -1.57499        1.94446
C          0.16074       -1.63135        3.23587
C          0.53452       -0.79089        4.45907
C         -0.28581       -1.20986        5.69205
C          0.10923       -0.40590        6.92924
C          0.06336        1.09372        6.65377
C          0.90693        1.45686        5.43169
N          0.49147        0.68061        4.24827
C         -0.60058        1.24624        3.57661
C         -0.42853        2.35547        2.73150
C         -1.52989        2.86461        2.03189
C         -2.77196        2.26509        2.18005
C         -2.86372        1.17933        3.02761
N         -1.81775        0.67067        3.71734
C          0.85627        2.94879        2.51241
N          1.87278        3.47331        2.31031
H          0.41238        0.58391       -0.54853
H          1.41575       -0.88094       -0.57261
H          1.90209        0.54438        0.41333
H         -0.89724       -1.55029        2.96726
H          0.32511       -2.69699        3.44022
H          1.58583       -1.02498        4.68347
H         -0.13101       -2.27653        5.89537
H         -1.35873       -1.08352        5.50935
H         -0.55936       -0.65264        7.76144
H          1.12297       -0.68878        7.23854
H         -0.97694        1.40409        6.49795
H          0.43164        1.63954        7.52962
H          0.85374        2.53825        5.25991
H          1.96187        1.23485        5.63727
H         -1.41529        3.71275        1.36042
H         -3.64068        2.62776        1.64224
H         -3.80841        0.66416        3.17792

--Link1--
%chk=JID_9238.chk
%mem=8GB
%nprocshared=4
# B3LYP/6-311++G(d,p) empiricaldispersion=gd3bj scf=xqc pop=npa geom=check

CID_62005337_JID_9238_Energie_neutraal

0 1

--Link1--
%chk=JID_9238.chk
%mem=8GB
%nprocshared=4
# B3LYP/6-311++G(d,p) empiricaldispersion=gd3bj scf=xqc pop=npa geom=check

CID_62005337_JID_9238_Energie_kation

1 2

--Link1--
%chk=JID_9238.chk
%mem=8GB
%nprocshared=4
# B3LYP/6-311++G(d,p) empiricaldispersion=gd3bj scf=xqc pop=npa geom=check

CID_62005337_JID_9238_Energie_anion

-1 2
