%chk=JID_7950.chk
%mem=8GB
%nprocshared=4
# opt freq B3LYP/6-31G(d) empiricaldispersion=gd3bj scf=xqc

CID_106835330_JID_7950_neutraal

0 1
C         -2.94600        0.04200        0.02500
C         -1.44772        0.14964       -0.00769
C         -0.58537       -0.96238       -0.04999
C          0.80700       -0.72665       -0.04949
C          1.35401        0.55833       -0.08372
C          0.48907        1.64273       -0.00391
C         -0.89275        1.44393        0.00904
N          2.73822        0.74508        0.03235
N         -0.97680       -2.30837       -0.05606
C         -1.19269       -2.86340        1.28158
C         -1.11957       -4.39040        1.20512
C         -2.08189       -4.96363        0.14804
C         -1.85726       -4.25666       -1.20760
C         -1.94203       -2.73673       -1.06645
C         -1.93851       -6.49159       -0.01303
C         -2.15395       -7.27371        1.27798
O         -2.89349       -6.95659       -0.96964
H         -3.33133       -0.17987       -0.97455
H         -3.27358       -0.72471        0.73199
H         -3.40580        0.97994        0.35648
H          1.47183       -1.58762       -0.04076
H          0.87946        2.65489        0.04946
H         -1.54104        2.31667        0.05374
H          3.27666       -0.03109       -0.34053
H          3.05633        1.63959       -0.32609
H         -2.16855       -2.55624        1.67657
H         -0.42656       -2.51553        1.98610
H         -1.34958       -4.79687        2.19593
H         -0.09185       -4.69053        0.96235
H         -3.11238       -4.74366        0.46118
H         -0.87087       -4.53004       -1.60470
H         -2.60242       -4.58671       -1.94050
H         -1.72020       -2.27664       -2.03691
H         -2.96580       -2.46893       -0.78622
H         -0.94627       -6.73335       -0.41085
H         -3.11994       -7.02438        1.73047
H         -2.17134       -8.34990        1.07291
H         -1.36335       -7.08069        2.00819
H         -3.78149       -6.80919       -0.60183

--Link1--
%chk=JID_7950.chk
%mem=8GB
%nprocshared=4
# B3LYP/6-311++G(d,p) empiricaldispersion=gd3bj scf=xqc pop=npa geom=check

CID_106835330_JID_7950_Energie_neutraal

0 1

--Link1--
%chk=JID_7950.chk
%mem=8GB
%nprocshared=4
# B3LYP/6-311++G(d,p) empiricaldispersion=gd3bj scf=xqc pop=npa geom=check

CID_106835330_JID_7950_Energie_kation

1 2

--Link1--
%chk=JID_7950.chk
%mem=8GB
%nprocshared=4
# B3LYP/6-311++G(d,p) empiricaldispersion=gd3bj scf=xqc pop=npa geom=check

CID_106835330_JID_7950_Energie_anion

-1 2
