%chk=JID_2511.chk
%mem=8GB
%nprocshared=4
# opt freq B3LYP/6-31G(d) empiricaldispersion=gd3bj scf=xqc

CID_21858037_JID_2511_neutraal

0 1
C          1.03792        0.08646        0.03298
C          0.48392        1.50229       -0.00602
C          0.98009        2.32151       -1.19985
C          0.64135        1.75358       -2.58201
C         -0.84664        1.50254       -2.85188
C         -1.74334        2.73823       -2.75206
N         -1.45556        3.75205       -3.74432
C         -0.87928        4.96974       -3.51862
C         -0.84854        5.58763       -4.75154
N         -1.39844        4.76787       -5.70909
C         -1.76155        3.67779       -5.07240
C         -0.32641        6.92416       -5.10904
H          0.67266       -0.51092       -0.80744
H          0.72557       -0.41361        0.95539
H          2.13209        0.09196        0.00470
H         -0.61086        1.46773        0.00513
H          0.78516        2.01857        0.91363
H          0.58089        3.33862       -1.11448
H          2.07075        2.42178       -1.12966
H          1.03792        2.43646       -3.34332
H          1.18139        0.80964       -2.72448
H         -0.94084        1.06641       -3.85460
H         -1.22046        0.74164       -2.15718
H         -2.78987        2.44529       -2.90000
H         -1.68000        3.20038       -1.76132
H         -0.54856        5.29094       -2.54109
H         -2.24047        2.81753       -5.52110
H          0.75345        6.87620       -5.27879
H         -0.80191        7.29599       -6.02203
H         -0.52005        7.64567       -4.30914

--Link1--
%chk=JID_2511.chk
%mem=8GB
%nprocshared=4
# B3LYP/6-311++G(d,p) empiricaldispersion=gd3bj scf=xqc pop=npa geom=check

CID_21858037_JID_2511_Energie_neutraal

0 1

--Link1--
%chk=JID_2511.chk
%mem=8GB
%nprocshared=4
# B3LYP/6-311++G(d,p) empiricaldispersion=gd3bj scf=xqc pop=npa geom=check

CID_21858037_JID_2511_Energie_kation

1 2

--Link1--
%chk=JID_2511.chk
%mem=8GB
%nprocshared=4
# B3LYP/6-311++G(d,p) empiricaldispersion=gd3bj scf=xqc pop=npa geom=check

CID_21858037_JID_2511_Energie_anion

-1 2
