%chk=JID_7020.chk
%mem=8GB
%nprocshared=4
# opt freq B3LYP/6-31G(d) empiricaldispersion=gd3bj scf=xqc

CID_84816766_JID_7020_neutraal

0 1
C          0.90654        0.02881       -0.02088
C          0.90533       -0.96085       -1.17278
O          1.45321       -2.20973       -0.73398
C          2.74573       -2.35991       -1.15299
C          3.01365       -2.86860       -2.42059
C          4.33597       -3.06195       -2.81621
C          5.38078       -2.75692       -1.93980
C          5.11330       -2.25417       -0.65695
C          3.77985       -2.07318       -0.26475
C          6.24149       -1.95087        0.30234
C          6.59851       -3.11980        1.17426
N          7.49490       -4.03623        0.86409
C          7.57864       -4.98367        1.87930
C          6.75109       -4.74777        2.96019
S          5.84215       -3.32066        2.70856
C          8.48247       -6.11642        1.77078
O          8.61570       -6.97608        2.63753
H          0.40090       -0.39430        0.85328
H          0.40143        0.95578       -0.30710
H          1.92816        0.27271        0.28627
H         -0.12787       -1.15561       -1.48048
H          1.42873       -0.54351       -2.04291
H          2.19876       -3.12332       -3.09135
H          4.55429       -3.46244       -3.80280
H          6.40743       -2.92836       -2.25842
H          3.53811       -1.71382        0.73205
H          7.12944       -1.64886       -0.26831
H          5.97971       -1.07530        0.91057
H          6.64463       -5.33799        3.86023
H          9.06087       -6.15647        0.83292

--Link1--
%chk=JID_7020.chk
%mem=8GB
%nprocshared=4
# B3LYP/6-311++G(d,p) empiricaldispersion=gd3bj scf=xqc pop=npa geom=check

CID_84816766_JID_7020_Energie_neutraal

0 1

--Link1--
%chk=JID_7020.chk
%mem=8GB
%nprocshared=4
# B3LYP/6-311++G(d,p) empiricaldispersion=gd3bj scf=xqc pop=npa geom=check

CID_84816766_JID_7020_Energie_kation

1 2

--Link1--
%chk=JID_7020.chk
%mem=8GB
%nprocshared=4
# B3LYP/6-311++G(d,p) empiricaldispersion=gd3bj scf=xqc pop=npa geom=check

CID_84816766_JID_7020_Energie_anion

-1 2
