%chk=JID_3936.chk
%mem=8GB
%nprocshared=4
# opt freq B3LYP/6-31G(d) empiricaldispersion=gd3bj scf=xqc

CID_123979612_JID_3936_neutraal

0 1
C          0.91489       -0.02058        0.04830
C          0.40444        0.08455        1.47914
C          0.39908        1.52467        2.02741
C         -0.52840        2.43651        1.21411
C         -0.02962        1.57104        3.51032
C          0.84636        0.79431        4.50107
C          2.36411        1.03777        4.46052
C          2.93428        2.37211        5.02744
C          2.48361        2.58392        6.48747
C          4.47715        2.24133        5.04540
C          2.47669        3.57391        4.21100
C          3.13862        4.18356        3.21314
C          2.60213        5.35741        2.45832
H          0.23197        0.45721       -0.65987
H          1.00309       -1.07293       -0.24092
H          1.90200        0.44150       -0.05211
H         -0.60435       -0.34227        1.53361
H          1.04844       -0.54635        2.10120
H          1.41079        1.93468        1.93595
H         -1.55161        2.04650        1.19516
H         -0.55757        3.44385        1.64391
H         -0.18203        2.54000        0.18144
H         -0.09991        2.61314        3.83753
H         -1.05224        1.17782        3.59319
H          0.46718        0.96849        5.51432
H          0.68262       -0.27662        4.32370
H          2.81408        0.21837        5.04047
H          2.73046        0.88957        3.43705
H          2.73221        1.71517        7.10782
H          2.97582        3.45836        6.93035
H          1.40348        2.74968        6.56606
H          4.87578        1.98959        4.05597
H          4.95545        3.17036        5.37738
H          4.79642        1.44686        5.73056
H          1.50003        3.97523        4.48007
H          4.11328        3.82654        2.89276
H          2.51297        5.10691        1.39678
H          1.61633        5.66800        2.81859
H          3.28490        6.20677        2.55634

--Link1--
%chk=JID_3936.chk
%mem=8GB
%nprocshared=4
# B3LYP/6-311++G(d,p) empiricaldispersion=gd3bj scf=xqc pop=npa geom=check

CID_123979612_JID_3936_Energie_neutraal

0 1

--Link1--
%chk=JID_3936.chk
%mem=8GB
%nprocshared=4
# B3LYP/6-311++G(d,p) empiricaldispersion=gd3bj scf=xqc pop=npa geom=check

CID_123979612_JID_3936_Energie_kation

1 2

--Link1--
%chk=JID_3936.chk
%mem=8GB
%nprocshared=4
# B3LYP/6-311++G(d,p) empiricaldispersion=gd3bj scf=xqc pop=npa geom=check

CID_123979612_JID_3936_Energie_anion

-1 2
