%chk=JID_8938.chk
%mem=8GB
%nprocshared=4
# opt freq B3LYP/6-31G(d) empiricaldispersion=gd3bj scf=xqc

CID_81317214_JID_8938_neutraal

0 1
C          2.20000        0.01800       -0.02000
N          0.82401       -0.24909       -0.35921
C          0.39026       -1.26613       -1.16334
C         -0.97543       -1.12939       -1.20945
N         -1.37946       -0.06064       -0.45572
C         -0.27910        0.46121        0.05282
C         -0.23815        1.66860        0.93375
C         -0.27914        2.96782        0.12509
N         -1.50162        3.11211       -0.64890
C         -1.91651        4.16777       -1.42888
O         -2.94506        4.03404       -2.09552
C         -1.16379        5.46875       -1.49144
N          0.01611        5.58751       -0.83291
C          0.65178        6.78118       -0.93159
C          0.16509        7.89649       -1.61214
C         -1.01402        7.71703       -2.32851
C         -1.69954        6.50343       -2.25467
N          0.92829        9.05623       -1.77812
H          2.32862       -0.14318        1.05313
H          2.85244       -0.65956       -0.57681
H          2.43206        1.05186       -0.28725
H          1.05996       -1.97832       -1.62412
H         -1.68873       -1.74175       -1.74560
H         -1.09970        1.63200        1.61213
H          0.65760        1.65864        1.56408
H         -0.21604        3.80899        0.82235
H          0.56673        3.01885       -0.56940
H         -2.03584        2.26120       -0.81868
H          1.61185        6.82071       -0.42444
H         -1.41292        8.51371       -2.95016
H         -2.63052        6.36768       -2.79720
H          1.57583        9.24413       -1.01837
H          0.38328        9.87752       -2.02524

--Link1--
%chk=JID_8938.chk
%mem=8GB
%nprocshared=4
# B3LYP/6-311++G(d,p) empiricaldispersion=gd3bj scf=xqc pop=npa geom=check

CID_81317214_JID_8938_Energie_neutraal

0 1

--Link1--
%chk=JID_8938.chk
%mem=8GB
%nprocshared=4
# B3LYP/6-311++G(d,p) empiricaldispersion=gd3bj scf=xqc pop=npa geom=check

CID_81317214_JID_8938_Energie_kation

1 2

--Link1--
%chk=JID_8938.chk
%mem=8GB
%nprocshared=4
# B3LYP/6-311++G(d,p) empiricaldispersion=gd3bj scf=xqc pop=npa geom=check

CID_81317214_JID_8938_Energie_anion

-1 2
