%chk=JID_5135.chk
%mem=8GB
%nprocshared=4
# opt freq B3LYP/6-31G(d) empiricaldispersion=gd3bj scf=xqc

CID_29790847_JID_5135_neutraal

0 1
C          1.08786       -0.00310        0.04766
C          0.16818        1.21495        0.18010
C          0.44027        2.18658       -0.97122
C         -1.31906        0.81477        0.19218
C         -1.75494        0.20321        1.47509
N         -2.50496        0.86197        2.36449
O         -2.67939       -0.07196        3.38578
C         -2.00626       -1.21155        3.01348
N         -1.43347       -1.08032        1.82896
C         -1.92983       -2.39910        3.82053
C         -1.13845       -3.51800        3.62855
C         -1.32862       -4.50740        4.63060
C         -2.26195       -4.12017        5.56592
S         -2.89517       -2.56811        5.23251
N         -0.26384       -3.67746        2.61386
H          0.85767       -0.57914       -0.85504
H          0.99694       -0.66965        0.91008
H          2.13640        0.30875       -0.01069
H          0.41437        1.73002        1.11794
H          0.20871        1.73065       -1.93977
H         -0.16681        3.09222       -0.86761
H          1.49188        2.49259       -0.98229
H         -1.93663        1.70316        0.00452
H         -1.53049        0.11795       -0.62851
H         -0.80872       -5.45586        4.67368
H         -2.60017       -4.67238        6.43199
H          0.20406       -4.55528        2.41547
H         -0.22934       -3.00068        1.84935

--Link1--
%chk=JID_5135.chk
%mem=8GB
%nprocshared=4
# B3LYP/6-311++G(d,p) empiricaldispersion=gd3bj scf=xqc pop=npa geom=check

CID_29790847_JID_5135_Energie_neutraal

0 1

--Link1--
%chk=JID_5135.chk
%mem=8GB
%nprocshared=4
# B3LYP/6-311++G(d,p) empiricaldispersion=gd3bj scf=xqc pop=npa geom=check

CID_29790847_JID_5135_Energie_kation

1 2

--Link1--
%chk=JID_5135.chk
%mem=8GB
%nprocshared=4
# B3LYP/6-311++G(d,p) empiricaldispersion=gd3bj scf=xqc pop=npa geom=check

CID_29790847_JID_5135_Energie_anion

-1 2
