%chk=JID_8365.chk
%mem=8GB
%nprocshared=4
# opt freq B3LYP/6-31G(d) empiricaldispersion=gd3bj scf=xqc

CID_114245752_JID_8365_neutraal

0 1
C          0.90708       -0.02818       -0.02390
C          0.14144       -0.77959        1.06815
C          0.70068       -0.39687        2.44459
C         -1.40789       -0.59880        1.00156
C         -1.99513       -1.44835       -0.13952
C         -3.49675       -1.27346       -0.35560
C         -3.81881       -0.16760       -1.35812
C         -3.61720        1.28829       -0.88190
C         -2.19676        1.52220       -0.31787
C         -1.87261        0.87106        1.02868
C         -4.74152        1.72602        0.10233
C         -6.17986        1.77247       -0.47907
C         -6.72299        3.12227        0.02418
C         -6.06114        4.25010       -0.78577
C         -4.63537        4.28601       -0.22067
C         -4.62952        3.12251        0.78251
C         -6.03595        3.26173        1.38010
O         -3.67841        2.09872       -2.06954
H          0.80522        1.05653        0.08026
H          0.56570       -0.31109       -1.02345
H          1.97616       -0.26234        0.03108
H          0.35481       -1.84949        0.93749
H          0.60953        0.67471        2.64474
H          0.18089       -0.93889        3.24149
H          1.76351       -0.65482        2.51046
H         -1.79645       -1.04592        1.92936
H         -1.81349       -2.50299        0.10883
H         -1.46177       -1.27228       -1.08008
H         -4.02455       -1.13249        0.59297
H         -3.87966       -2.21098       -0.77973
H         -4.85765       -0.29734       -1.68848
H         -3.22795       -0.33145       -2.27063
H         -1.45135        1.23863       -1.07139
H         -2.05303        2.60573       -0.20461
H         -2.73834        0.94188        1.69542
H         -1.11080        1.48664        1.51990
H         -4.76743        0.98966        0.91729
H         -6.23379        1.69756       -1.56792
H         -6.76901        0.94658       -0.06242
H         -7.81329        3.17583        0.03751
H         -6.07300        4.05624       -1.86297
H         -6.56178        5.20800       -0.60564
H         -3.86958        4.21865       -0.99443
H         -4.47362        5.23559        0.30451
H         -3.82641        3.18913        1.51955
H         -6.21061        4.23263        1.85612
H         -6.29277        2.46071        2.08134
H         -4.44650        1.82594       -2.59752

--Link1--
%chk=JID_8365.chk
%mem=8GB
%nprocshared=4
# B3LYP/6-311++G(d,p) empiricaldispersion=gd3bj scf=xqc pop=npa geom=check

CID_114245752_JID_8365_Energie_neutraal

0 1

--Link1--
%chk=JID_8365.chk
%mem=8GB
%nprocshared=4
# B3LYP/6-311++G(d,p) empiricaldispersion=gd3bj scf=xqc pop=npa geom=check

CID_114245752_JID_8365_Energie_kation

1 2

--Link1--
%chk=JID_8365.chk
%mem=8GB
%nprocshared=4
# B3LYP/6-311++G(d,p) empiricaldispersion=gd3bj scf=xqc pop=npa geom=check

CID_114245752_JID_8365_Energie_anion

-1 2
