%chk=JID_9096.chk
%mem=8GB
%nprocshared=4
# opt freq B3LYP/6-31G(d) empiricaldispersion=gd3bj scf=xqc

CID_115151137_JID_9096_neutraal

0 1
C          1.01834        0.02388       -0.09536
C          0.40162       -1.26293       -0.67045
C          1.31353       -2.44658       -0.29164
C         -0.98238       -1.48910       -0.04117
C          0.31200       -1.19606       -2.21891
C         -0.66604       -0.15391       -2.78209
N         -0.53276        0.02473       -4.23635
C         -0.88936       -1.12730       -5.05876
C         -0.28748        1.23433       -4.88845
O         -0.36144        1.32203       -6.11706
C          0.09862        2.46657       -4.05069
C          1.49636        2.33119       -3.43489
C          2.61691        2.53368       -4.45226
C          2.50739        3.89052       -5.16345
C          1.13324        4.02634       -5.82994
C         -0.01622        3.77661       -4.85140
C          3.66784        4.04061       -6.16982
C          3.71783        5.36033       -6.94532
N          3.85903        6.51602       -6.06706
H          0.37599        0.89479       -0.25864
H          1.99211        0.23347       -0.55179
H          1.17209       -0.06375        0.98647
H          1.42047       -2.53439        0.79555
H          0.90670       -3.39440       -0.66191
H          2.31659       -2.32461       -0.71579
H         -1.64663       -0.63420       -0.20612
H         -1.46604       -2.37816       -0.46082
H         -0.90385       -1.63344        1.04254
H          1.31351       -1.00709       -2.62783
H          0.01895       -2.18556       -2.59361
H         -1.70034       -0.46693       -2.59691
H         -0.53826        0.79454       -2.26579
H         -1.91649       -1.42260       -4.82429
H         -0.82452       -0.91951       -6.12965
H         -0.20999       -1.95412       -4.83616
H         -0.64725        2.55041       -3.25184
H          1.60429        3.07802       -2.63775
H          1.63555        1.35519       -2.96335
H          2.59566        1.71929       -5.18747
H          3.58131        2.46467       -3.93420
H          2.60049        4.67392       -4.39999
H          1.06246        3.33331       -6.67605
H          1.01131        5.03342       -6.24454
H         -0.96710        3.80696       -5.39740
H         -0.04393        4.61241       -4.13941
H          4.61834        3.91438       -5.63410
H          3.61930        3.22150       -6.89940
H          4.57941        5.33406       -7.62192
H          2.82858        5.47803       -7.57278
H          3.91637        7.36093       -6.63453
H          3.01925        6.61847       -5.49928

--Link1--
%chk=JID_9096.chk
%mem=8GB
%nprocshared=4
# B3LYP/6-311++G(d,p) empiricaldispersion=gd3bj scf=xqc pop=npa geom=check

CID_115151137_JID_9096_Energie_neutraal

0 1

--Link1--
%chk=JID_9096.chk
%mem=8GB
%nprocshared=4
# B3LYP/6-311++G(d,p) empiricaldispersion=gd3bj scf=xqc pop=npa geom=check

CID_115151137_JID_9096_Energie_kation

1 2

--Link1--
%chk=JID_9096.chk
%mem=8GB
%nprocshared=4
# B3LYP/6-311++G(d,p) empiricaldispersion=gd3bj scf=xqc pop=npa geom=check

CID_115151137_JID_9096_Energie_anion

-1 2
