%chk=JID_10762.chk
%mem=8GB
%nprocshared=4
# opt freq B3LYP/6-31G(d) empiricaldispersion=gd3bj scf=xqc

CID_91831425_JID_10762_neutraal

0 1
C          0.95513        0.03411        0.08260
C         -0.04442       -0.89468        0.73188
O         -1.06881       -0.42134        1.22808
C          0.28099       -2.31665        0.72177
C          1.37161       -2.96915        0.17635
C          1.34909       -4.39165        0.38839
C          0.21220       -4.75819        1.08288
S         -0.78254       -3.42827        1.47516
C          2.40220       -5.34857       -0.09948
N          3.71141       -5.06427        0.52671
C          4.74851       -5.79953       -0.23194
C          6.10080       -5.22280        0.01079
C          6.56603       -3.95605       -0.28799
N          7.86749       -3.91844        0.11448
N          8.30111       -5.08186        0.63122
C          7.22494       -5.86981        0.57461
C          8.77248       -2.79923        0.02471
C          3.72196       -5.44419        1.96773
C          4.70824       -4.81463        2.91805
C          3.25942       -4.45710        3.00968
H          0.60335        1.06686        0.16780
H          1.05872       -0.20738       -0.97873
H          1.92216       -0.04149        0.58733
H          2.17947       -2.46741       -0.34383
H         -0.08404       -5.75279        1.38758
H          2.09857       -6.38878        0.07690
H          2.46071       -5.21222       -1.18787
H          4.72770       -6.87029        0.00902
H          4.56848       -5.71628       -1.31230
H          6.07505       -3.10058       -0.72956
H          7.30161       -6.88433        0.94405
H          9.19831       -2.61661        1.01453
H          9.55812       -3.05016       -0.69217
H          8.22527       -1.91548       -0.31255
H          3.48109       -6.48895        2.16331
H          5.13128       -5.43982        3.69522
H          5.38272       -4.04877        2.55471
H          2.97950       -3.45658        2.70342
H          2.68945       -4.83745        3.84866

--Link1--
%chk=JID_10762.chk
%mem=8GB
%nprocshared=4
# B3LYP/6-311++G(d,p) empiricaldispersion=gd3bj scf=xqc pop=npa geom=check

CID_91831425_JID_10762_Energie_neutraal

0 1

--Link1--
%chk=JID_10762.chk
%mem=8GB
%nprocshared=4
# B3LYP/6-311++G(d,p) empiricaldispersion=gd3bj scf=xqc pop=npa geom=check

CID_91831425_JID_10762_Energie_kation

1 2

--Link1--
%chk=JID_10762.chk
%mem=8GB
%nprocshared=4
# B3LYP/6-311++G(d,p) empiricaldispersion=gd3bj scf=xqc pop=npa geom=check

CID_91831425_JID_10762_Energie_anion

-1 2
