%chk=JID_6254.chk
%mem=8GB
%nprocshared=4
# opt freq B3LYP/6-31G(d) empiricaldispersion=gd3bj scf=xqc

CID_87092676_JID_6254_neutraal

0 1
C          1.05941       -0.03439        0.07272
S          1.20695       -1.60687        0.95711
S          1.54667       -0.97241        2.87416
O         -0.03824       -0.94280        3.36856
C          2.91265       -0.77914       -3.57053
C          1.59087       -0.57150       -4.29750
S          1.38187       -1.69489       -5.71300
C          3.03700       -2.07939       -2.82571
O          4.08751       -2.61340       -2.51119
O          1.86771       -2.59864       -2.41241
C         -2.87109       -0.26278        1.42894
C         -3.52529       -1.63345        1.47519
S         -2.52710       -2.83130        2.41833
C         -3.17404        0.53436        2.66859
O         -4.27889        1.00065        2.90789
O         -2.12757        0.69942        3.50114
H          0.29474        0.60178        0.52533
H          0.76936       -0.23342       -0.96218
H          2.01910        0.48931        0.06559
H         -0.26595       -1.81383        3.79291
H          3.03742        0.01897       -2.82929
H          3.74688       -0.70918       -4.27827
H          0.73544       -0.69349       -3.62558
H          1.55509        0.45121       -4.68707
H          1.20028       -2.81412       -4.99455
H          2.13464       -3.38447       -1.88653
H         -3.28554        0.31254        0.59124
H         -1.79582       -0.31406        1.24255
H         -4.52359       -1.58831        1.92162
H         -3.62836       -2.02726        0.45899
H         -1.53856       -2.94858        1.51632
H         -1.29745        0.23521        3.24334

--Link1--
%chk=JID_6254.chk
%mem=8GB
%nprocshared=4
# B3LYP/6-311++G(d,p) empiricaldispersion=gd3bj scf=xqc pop=npa geom=check

CID_87092676_JID_6254_Energie_neutraal

0 1

--Link1--
%chk=JID_6254.chk
%mem=8GB
%nprocshared=4
# B3LYP/6-311++G(d,p) empiricaldispersion=gd3bj scf=xqc pop=npa geom=check

CID_87092676_JID_6254_Energie_kation

1 2

--Link1--
%chk=JID_6254.chk
%mem=8GB
%nprocshared=4
# B3LYP/6-311++G(d,p) empiricaldispersion=gd3bj scf=xqc pop=npa geom=check

CID_87092676_JID_6254_Energie_anion

-1 2
