%chk=JID_2124.chk
%mem=8GB
%nprocshared=4
# opt freq B3LYP/6-31G(d) empiricaldispersion=gd3bj scf=xqc

CID_90701438_JID_2124_neutraal

0 1
C          1.07491       -0.03194       -0.05804
C          0.50600        1.32497       -0.47792
C          0.56246        1.44963       -2.00398
C         -0.94230        1.52405        0.00635
C         -1.13343        1.56274        1.52411
O         -0.61596        2.76733        2.08624
C          0.69232        2.65542        2.64318
C          0.64954        2.72686        4.17839
C         -0.22199        1.60281        4.75935
C          2.06861        2.67887        4.78731
C          2.97904        3.81443        4.33186
O          1.98880        2.74017        6.21311
H          0.46302       -0.85359       -0.44608
H          1.12709       -0.13725        1.02839
H          2.09180       -0.15995       -0.44494
H          1.14025        2.11585       -0.06235
H         -0.05016        0.68200       -2.48925
H          0.19796        2.42997       -2.32862
H          1.59059        1.34083       -2.36554
H         -1.31915        2.46781       -0.40882
H         -1.56930        0.72129       -0.40201
H         -2.21116        1.57703        1.72284
H         -0.73962        0.67181        2.02350
H          1.20671        1.74765        2.31388
H          1.25378        3.50718        2.24789
H          0.16535        3.66815        4.47170
H          0.17220        0.61831        4.48525
H         -0.26804        1.65642        5.85177
H         -1.25210        1.67210        4.39586
H          2.54541        1.72359        4.53901
H          2.51286        4.78796        4.51852
H          3.91685        3.80120        4.89840
H          3.22649        3.74044        3.26953
H          1.54005        3.56945        6.45115

--Link1--
%chk=JID_2124.chk
%mem=8GB
%nprocshared=4
# B3LYP/6-311++G(d,p) empiricaldispersion=gd3bj scf=xqc pop=npa geom=check

CID_90701438_JID_2124_Energie_neutraal

0 1

--Link1--
%chk=JID_2124.chk
%mem=8GB
%nprocshared=4
# B3LYP/6-311++G(d,p) empiricaldispersion=gd3bj scf=xqc pop=npa geom=check

CID_90701438_JID_2124_Energie_kation

1 2

--Link1--
%chk=JID_2124.chk
%mem=8GB
%nprocshared=4
# B3LYP/6-311++G(d,p) empiricaldispersion=gd3bj scf=xqc pop=npa geom=check

CID_90701438_JID_2124_Energie_anion

-1 2
