%chk=JID_7579.chk
%mem=8GB
%nprocshared=4
# opt freq B3LYP/6-31G(d) empiricaldispersion=gd3bj scf=xqc

CID_117825441_JID_7579_neutraal

0 1
C          0.92862        0.06039       -0.03547
N          0.28083        0.61408        1.15500
O         -0.32895       -0.11587        1.92284
C          0.38667        2.02151        1.48151
C          0.68337        2.41528        2.78897
C          0.90707        3.77986        3.03913
C          0.72526        4.77626        2.05543
C          0.32736        4.33584        0.78430
C          0.17852        2.97481        0.48664
N          0.94810        6.17753        2.36040
C          1.24732        6.54048        3.75523
C          1.04572        8.01661        4.07065
O          1.84406        8.78963        3.18728
C          1.39482        8.59463        1.85974
C          1.11378        7.15988        1.36174
O          1.01840        6.98221        0.14637
N          0.99607        1.47000        3.78511
H          0.23141        0.17462       -0.87046
H          1.11802       -1.00368        0.12196
H          1.84539        0.61210       -0.25351
H          1.25911        4.03239        4.03384
H          0.11871        5.02750       -0.02543
H         -0.10418        2.68654       -0.52253
H          2.29483        6.26869        3.93372
H          0.59573        5.98067        4.43366
H          1.36940        8.22833        5.09471
H         -0.00624        8.31254        3.98098
H          2.15863        9.02204        1.20107
H          0.47509        9.17482        1.71601
H          0.79077        1.78758        4.72684
H          0.51770        0.58139        3.58538

--Link1--
%chk=JID_7579.chk
%mem=8GB
%nprocshared=4
# B3LYP/6-311++G(d,p) empiricaldispersion=gd3bj scf=xqc pop=npa geom=check

CID_117825441_JID_7579_Energie_neutraal

0 1

--Link1--
%chk=JID_7579.chk
%mem=8GB
%nprocshared=4
# B3LYP/6-311++G(d,p) empiricaldispersion=gd3bj scf=xqc pop=npa geom=check

CID_117825441_JID_7579_Energie_kation

1 2

--Link1--
%chk=JID_7579.chk
%mem=8GB
%nprocshared=4
# B3LYP/6-311++G(d,p) empiricaldispersion=gd3bj scf=xqc pop=npa geom=check

CID_117825441_JID_7579_Energie_anion

-1 2
