%chk=JID_4238.chk
%mem=8GB
%nprocshared=4
# opt freq B3LYP/6-31G(d) empiricaldispersion=gd3bj scf=xqc

CID_105099434_JID_4238_neutraal

0 1
C          0.94699       -0.07887        0.03113
C          0.93860        1.39242        0.40646
O          1.47333        2.22866       -0.61230
C          2.86407        2.10132       -0.90187
C          3.76867        2.57987        0.23704
C          4.34020        1.43834        1.07958
C          5.39932        0.64975        0.32504
O          6.40431        1.21689       -0.10474
C          5.13634       -0.83392        0.06883
C          5.01487       -1.62499        1.37353
C          4.85256       -3.11144        1.08235
O          5.93303       -3.59186        0.28816
C          6.00477       -2.94532       -0.98138
C          6.23230       -1.45101       -0.80896
H          0.49440       -0.22868       -0.95429
H          0.39156       -0.66570        0.76868
H          1.96297       -0.47560       -0.01668
H         -0.10126        1.70643        0.54859
H          1.44653        1.56836        1.35878
H          3.09443        1.08812       -1.24208
H          3.03689        2.75555       -1.76423
H          4.60327        3.14474       -0.19625
H          3.21842        3.26803        0.88907
H          4.82555        1.84384        1.97496
H          3.54725        0.77347        1.42451
H          4.19185       -0.89847       -0.48396
H          5.91950       -1.46759        1.97467
H          4.16724       -1.27952        1.97394
H          4.84854       -3.67632        2.01987
H          3.90403       -3.31466        0.57078
H          5.08697       -3.14667       -1.54637
H          6.83813       -3.38845       -1.53557
H          6.26524       -0.95960       -1.78812
H          7.20934       -1.29305       -0.33378

--Link1--
%chk=JID_4238.chk
%mem=8GB
%nprocshared=4
# B3LYP/6-311++G(d,p) empiricaldispersion=gd3bj scf=xqc pop=npa geom=check

CID_105099434_JID_4238_Energie_neutraal

0 1

--Link1--
%chk=JID_4238.chk
%mem=8GB
%nprocshared=4
# B3LYP/6-311++G(d,p) empiricaldispersion=gd3bj scf=xqc pop=npa geom=check

CID_105099434_JID_4238_Energie_kation

1 2

--Link1--
%chk=JID_4238.chk
%mem=8GB
%nprocshared=4
# B3LYP/6-311++G(d,p) empiricaldispersion=gd3bj scf=xqc pop=npa geom=check

CID_105099434_JID_4238_Energie_anion

-1 2
