%chk=JID_9550.chk
%mem=8GB
%nprocshared=4
# opt freq B3LYP/6-31G(d) empiricaldispersion=gd3bj scf=xqc

CID_81213882_JID_9550_neutraal

0 1
C          2.49600       -0.00700       -0.12600
C          1.04001        0.26977        0.25448
C          0.42908        1.35371       -0.63519
C         -1.04600        1.57904       -0.31762
C         -1.86254        0.28584       -0.38123
C         -1.28786       -0.91124        0.43086
C          0.23035       -1.02521        0.14506
C         -2.03635       -2.22027       -0.05409
N         -1.49192       -3.48961        0.38281
C         -0.50034       -4.16474       -0.45135
C          0.31810       -5.21087        0.34354
O          0.54907       -4.76762        1.69785
C         -0.68183       -4.55298        2.42066
C         -1.92220       -4.27668        1.52648
C         -3.10719       -3.78716        2.35479
C          1.68255       -5.44115       -0.31226
O          2.42644       -6.39525        0.44505
C         -1.56674       -0.73284        1.94361
O         -1.08844        0.48020        2.50152
H          2.58006       -0.36107       -1.15915
H          3.09814        0.90296       -0.03219
H          2.93325       -0.76690        0.53033
H          1.04732        0.62382        1.28873
H          0.97602        2.29549       -0.50790
H          0.52972        1.07151       -1.69116
H         -1.46056        2.29742       -1.03524
H         -1.14544        2.04927        0.66545
H         -1.92466        0.00021       -1.44027
H         -2.89242        0.49382       -0.06480
H          0.35513       -1.38252       -0.88529
H          0.67826       -1.77853        0.80528
H         -3.09724       -2.14393        0.21390
H         -2.04457       -2.22374       -1.15316
H         -0.99352       -4.66556       -1.29368
H          0.18814       -3.44322       -0.89365
H         -0.21478       -6.16853        0.40237
H         -0.49557       -3.71309        3.09850
H         -0.85714       -5.43893        3.04040
H         -2.25353       -5.24546        1.12516
H         -3.99098       -3.63044        1.72809
H         -3.37479       -4.54096        3.10444
H         -2.89511       -2.86577        2.89714
H          1.57460       -5.81792       -1.33362
H          2.27090       -4.51736       -0.33632
H          2.35850       -6.08786        1.37099
H         -2.64734       -0.74137        2.12140
H         -1.12654       -1.54964        2.52100
H         -0.22626        0.29149        2.91055

--Link1--
%chk=JID_9550.chk
%mem=8GB
%nprocshared=4
# B3LYP/6-311++G(d,p) empiricaldispersion=gd3bj scf=xqc pop=npa geom=check

CID_81213882_JID_9550_Energie_neutraal

0 1

--Link1--
%chk=JID_9550.chk
%mem=8GB
%nprocshared=4
# B3LYP/6-311++G(d,p) empiricaldispersion=gd3bj scf=xqc pop=npa geom=check

CID_81213882_JID_9550_Energie_kation

1 2

--Link1--
%chk=JID_9550.chk
%mem=8GB
%nprocshared=4
# B3LYP/6-311++G(d,p) empiricaldispersion=gd3bj scf=xqc pop=npa geom=check

CID_81213882_JID_9550_Energie_anion

-1 2
