%chk=JID_10101.chk
%mem=8GB
%nprocshared=4
# opt freq B3LYP/6-31G(d) empiricaldispersion=gd3bj scf=xqc

CID_53989225_JID_10101_neutraal

0 1
C          1.06459       -0.00791        0.07593
O          0.68227        0.48746       -1.20488
C          0.98645        1.80935       -1.37534
C         -0.01647        2.61001       -1.91224
C          0.19921        3.97881       -2.09257
C          1.43462        4.55666       -1.77816
C          2.44656        3.72988       -1.26824
C          2.22901        2.36162       -1.07479
C          1.69464        6.00060       -1.86503
C          1.18034        6.87463       -2.73746
C          0.25094        6.77174       -3.92509
C          0.92038        7.79253       -4.86877
C          0.81541        8.97603       -3.88900
C          1.53008        8.33440       -2.71985
O          2.22079        8.89315       -1.88780
C         -0.69913        9.00036       -3.62478
C         -1.09320        7.49335       -3.65589
C         -1.83607        7.22930       -2.34760
C         -2.35437        8.60364       -1.93760
C         -1.20683        9.54349       -2.29270
H          0.52865       -0.94724        0.24322
H          0.78797        0.68360        0.88011
H          2.13655       -0.22723        0.10389
H         -0.98066        2.17486       -2.16083
H         -0.62676        4.57799       -2.45932
H          3.41972        4.14501       -1.01263
H          3.03955        1.74698       -0.69666
H          2.39089        6.38082       -1.11601
H          0.15504        5.77579       -4.35962
H          0.35544        7.95457       -5.79386
H          1.95506        7.52951       -5.12222
H          1.27109        9.90475       -4.23088
H         -1.20969        9.51385       -4.45048
H         -1.77252        7.32585       -4.50279
H         -1.18281        6.83934       -1.56176
H         -2.65075        6.51079       -2.48150
H         -2.61152        8.64742       -0.87530
H         -3.24868        8.85965       -2.51791
H         -0.44470        9.51011       -1.50787
H         -1.54358       10.58117       -2.37790

--Link1--
%chk=JID_10101.chk
%mem=8GB
%nprocshared=4
# B3LYP/6-311++G(d,p) empiricaldispersion=gd3bj scf=xqc pop=npa geom=check

CID_53989225_JID_10101_Energie_neutraal

0 1

--Link1--
%chk=JID_10101.chk
%mem=8GB
%nprocshared=4
# B3LYP/6-311++G(d,p) empiricaldispersion=gd3bj scf=xqc pop=npa geom=check

CID_53989225_JID_10101_Energie_kation

1 2

--Link1--
%chk=JID_10101.chk
%mem=8GB
%nprocshared=4
# B3LYP/6-311++G(d,p) empiricaldispersion=gd3bj scf=xqc pop=npa geom=check

CID_53989225_JID_10101_Energie_anion

-1 2
