%chk=JID_1220.chk
%mem=8GB
%nprocshared=4
# opt freq B3LYP/6-31G(d) empiricaldispersion=gd3bj scf=xqc

CID_62319630_JID_1220_neutraal

0 1
C          1.05151        0.07258        0.04559
O          0.44629       -0.66902       -1.00141
C          0.77487       -2.05343       -0.92592
C          0.45459       -2.71411       -2.26376
C          1.03024       -1.98831       -3.48972
C          2.53148       -1.70933       -3.45811
C          3.36880       -2.83866       -4.02652
O          3.95667       -2.71015       -5.10359
C          3.44182       -4.14780       -3.24915
O          3.60791       -3.99004       -1.84807
C          4.95650       -3.70428       -1.49374
H          0.67928        1.09958        0.00146
H          2.13787        0.09102       -0.08473
H          0.79608       -0.35149        1.02165
H          1.83310       -2.18622       -0.67707
H          0.18177       -2.51743       -0.12954
H          0.78182       -3.75746       -2.23959
H         -0.63614       -2.73588       -2.38571
H          0.77369       -2.56277       -4.38818
H          0.50981       -1.02651       -3.58588
H          2.72879       -0.83312       -4.08980
H          2.90598       -1.44515       -2.46619
H          2.50447       -4.68445       -3.42323
H          4.24650       -4.76816       -3.66109
H          5.61264       -4.52933       -1.78731
H          5.29090       -2.77146       -1.95702
H          5.00711       -3.59074       -0.40743

--Link1--
%chk=JID_1220.chk
%mem=8GB
%nprocshared=4
# B3LYP/6-311++G(d,p) empiricaldispersion=gd3bj scf=xqc pop=npa geom=check

CID_62319630_JID_1220_Energie_neutraal

0 1

--Link1--
%chk=JID_1220.chk
%mem=8GB
%nprocshared=4
# B3LYP/6-311++G(d,p) empiricaldispersion=gd3bj scf=xqc pop=npa geom=check

CID_62319630_JID_1220_Energie_kation

1 2

--Link1--
%chk=JID_1220.chk
%mem=8GB
%nprocshared=4
# B3LYP/6-311++G(d,p) empiricaldispersion=gd3bj scf=xqc pop=npa geom=check

CID_62319630_JID_1220_Energie_anion

-1 2
