%chk=JID_9944.chk
%mem=8GB
%nprocshared=4
# opt freq B3LYP/6-31G(d) empiricaldispersion=gd3bj scf=xqc

CID_116505366_JID_9944_neutraal

0 1
C          0.92780        0.05729       -0.03880
C          0.82075       -0.06110       -1.56201
C          0.89196        1.31554       -2.23822
C          2.30177        1.89272       -2.26909
C          3.32214        0.91266       -2.85503
C          3.32227       -0.50208       -2.20970
C          1.84151       -1.02210       -2.22148
C          1.62108       -2.47300       -1.77688
C          4.08624       -0.61024       -0.88145
C          4.58200        0.49363       -0.17653
C          5.25174        0.34522        1.04830
C          5.48967       -0.90853        1.63272
C          5.04635       -2.01269        0.88994
C          4.38131       -1.86981       -0.33609
C          6.20220       -1.03984        3.04247
C          5.40175       -1.68007        4.21309
C          6.74161       -2.23742        4.73242
C          7.25628       -2.15854        3.28050
O          4.05538       -1.32448       -3.14587
H          0.87255       -0.91998        0.44832
H          0.09291        0.65360        0.34720
H          1.84374        0.55200        0.28548
H         -0.18378       -0.45852       -1.76574
H          0.53076        1.22034       -3.27071
H          0.21508        2.02081       -1.74123
H          2.58431        2.20333       -1.26001
H          2.30009        2.80741       -2.87425
H          4.32659        1.35423       -2.83427
H          3.09858        0.80402       -3.92688
H          1.56303       -1.04987       -3.28872
H          0.59133       -2.78103       -1.99236
H          2.27853       -3.15710       -2.32285
H          1.77842       -2.61654       -0.70561
H          4.46297        1.50740       -0.54329
H          5.59030        1.24256        1.56521
H          5.21221       -3.01832        1.27157
H          4.09900       -2.77772       -0.86519
H          6.61571       -0.06556        3.35222
H          4.89452       -0.97704        4.87942
H          4.69017       -2.45770        3.91175
H          6.70234       -3.23752        5.17080
H          7.26148       -1.56331        5.42274
H          7.09774       -3.08239        2.71356
H          8.30060       -1.85417        3.16974
H          5.00120       -1.21162       -2.94588

--Link1--
%chk=JID_9944.chk
%mem=8GB
%nprocshared=4
# B3LYP/6-311++G(d,p) empiricaldispersion=gd3bj scf=xqc pop=npa geom=check

CID_116505366_JID_9944_Energie_neutraal

0 1

--Link1--
%chk=JID_9944.chk
%mem=8GB
%nprocshared=4
# B3LYP/6-311++G(d,p) empiricaldispersion=gd3bj scf=xqc pop=npa geom=check

CID_116505366_JID_9944_Energie_kation

1 2

--Link1--
%chk=JID_9944.chk
%mem=8GB
%nprocshared=4
# B3LYP/6-311++G(d,p) empiricaldispersion=gd3bj scf=xqc pop=npa geom=check

CID_116505366_JID_9944_Energie_anion

-1 2
