%chk=JID_9299.chk
%mem=8GB
%nprocshared=4
# opt freq B3LYP/6-31G(d) empiricaldispersion=gd3bj scf=xqc

CID_64102220_JID_9299_neutraal

0 1
C          1.05368       -0.05167        0.06670
C          0.77623       -1.32617       -0.71805
C          1.23630       -2.51803        0.03428
N          2.33818       -2.65431        0.74377
C          2.19680       -3.88804        1.32045
C          1.02644       -4.48125        0.88544
O          0.40097       -3.60591        0.04488
C          0.59373       -5.73773        1.27831
C          1.41326       -6.39027        2.21443
C          2.59238       -5.81286        2.73311
C          3.00295       -4.56495        2.24315
N          3.31713       -6.51265        3.70844
C          3.68613       -5.86924        4.99301
C          4.94588       -5.00707        4.90609
C          4.73094       -3.58515        5.39417
O          3.46039       -3.10454        4.98328
C          2.39665       -3.72052        5.70198
C          2.49032       -5.25184        5.72957
C          1.07325       -3.23354        5.12202
H          0.56330       -0.07310        1.04613
H          0.67967        0.81863       -0.48196
H          2.12761        0.09000        0.23025
H         -0.29843       -1.39864       -0.91963
H          1.28976       -1.28590       -1.68447
H         -0.32467       -6.17153        0.90606
H          1.09662       -7.37148        2.56381
H          3.91240       -4.08175        2.56683
H          2.90343       -7.42742        3.87734
H          3.98274       -6.72928        5.61127
H          5.74837       -5.45563        5.50590
H          5.34195       -4.99425        3.88483
H          5.49761       -2.92801        4.97054
H          4.81813       -3.52018        6.48542
H          2.44354       -3.34794        6.73403
H          1.54497       -5.71785        5.42435
H          2.58859       -5.52850        6.78985
H          0.22537       -3.60231        5.70767
H          1.03905       -2.13871        5.11116
H          0.94368       -3.55965        4.08713

--Link1--
%chk=JID_9299.chk
%mem=8GB
%nprocshared=4
# B3LYP/6-311++G(d,p) empiricaldispersion=gd3bj scf=xqc pop=npa geom=check

CID_64102220_JID_9299_Energie_neutraal

0 1

--Link1--
%chk=JID_9299.chk
%mem=8GB
%nprocshared=4
# B3LYP/6-311++G(d,p) empiricaldispersion=gd3bj scf=xqc pop=npa geom=check

CID_64102220_JID_9299_Energie_kation

1 2

--Link1--
%chk=JID_9299.chk
%mem=8GB
%nprocshared=4
# B3LYP/6-311++G(d,p) empiricaldispersion=gd3bj scf=xqc pop=npa geom=check

CID_64102220_JID_9299_Energie_anion

-1 2
