%chk=JID_7785.chk
%mem=8GB
%nprocshared=4
# opt freq B3LYP/6-31G(d) empiricaldispersion=gd3bj scf=xqc

CID_112570791_JID_7785_neutraal

0 1
C          1.05870       -0.06549        0.04760
N          0.44345       -1.22483        0.68980
C          1.38175       -2.34566        0.82245
C          2.39023       -2.19506        1.97381
C          1.72378       -1.92716        3.34607
C          0.81702       -3.13701        3.76634
C          1.59711       -4.39504        4.13272
N          2.51831       -4.13816        5.23013
C          3.45537       -3.07282        4.88505
C          2.75684       -1.72526        4.53862
C          3.86427       -0.62295        4.53481
C          5.04682       -0.80599        3.56668
C          5.39440        0.59521        3.07889
C          4.06924        1.33620        3.11806
C          3.43580        0.84403        4.40931
C          0.79370       -0.70294        3.13417
C         -0.19228       -0.87891        1.96678
H          0.31473        0.72255       -0.11445
H          1.44094       -0.33515       -0.94335
H          1.88388        0.36014        0.62473
H          0.80650       -3.26966        0.95036
H          1.92886       -2.49045       -0.11812
H          3.04156       -1.35582        1.71504
H          3.02451       -3.08661        2.00503
H          0.20764       -2.84010        4.63213
H          0.09977       -3.40782        2.98666
H          2.13512       -4.79552        3.26645
H          0.89435       -5.17653        4.44332
H          1.98627       -3.85742        6.05418
H          4.09994       -3.40501        4.06305
H          4.11588       -2.93538        5.74962
H          2.13286       -1.47098        5.41119
H          4.30463       -0.68416        5.54359
H          5.90580       -1.26366        4.07054
H          4.81122       -1.45045        2.72058
H          5.83838        0.58752        2.07927
H          6.10972        1.06447        3.76487
H          3.45697        1.06093        2.25454
H          4.20216        2.42183        3.10974
H          2.36237        1.01917        4.47417
H          3.87318        1.41025        5.24364
H          1.38390        0.18501        2.90739
H          0.23266       -0.48670        4.05136
H         -0.78566        0.03781        1.85529
H         -0.92755       -1.65365        2.21222

--Link1--
%chk=JID_7785.chk
%mem=8GB
%nprocshared=4
# B3LYP/6-311++G(d,p) empiricaldispersion=gd3bj scf=xqc pop=npa geom=check

CID_112570791_JID_7785_Energie_neutraal

0 1

--Link1--
%chk=JID_7785.chk
%mem=8GB
%nprocshared=4
# B3LYP/6-311++G(d,p) empiricaldispersion=gd3bj scf=xqc pop=npa geom=check

CID_112570791_JID_7785_Energie_kation

1 2

--Link1--
%chk=JID_7785.chk
%mem=8GB
%nprocshared=4
# B3LYP/6-311++G(d,p) empiricaldispersion=gd3bj scf=xqc pop=npa geom=check

CID_112570791_JID_7785_Energie_anion

-1 2
