%chk=JID_5403.chk
%mem=8GB
%nprocshared=4
# opt freq B3LYP/6-31G(d) empiricaldispersion=gd3bj scf=xqc

CID_84121874_JID_5403_neutraal

0 1
C          1.26600       -0.09700        0.26800
C          0.49979        1.21698        0.21983
C         -0.93784        0.85458       -0.15427
C         -0.96568       -0.66938       -0.34508
C          0.48824       -1.01557       -0.66064
C         -1.97330       -1.09094       -1.42114
N         -2.19891       -2.54072       -1.49613
C         -1.28158       -3.29919       -2.35395
C         -1.90368       -4.49242       -3.06644
C         -1.90792       -5.76756       -2.21615
C         -2.22267       -5.50611       -0.74026
C         -3.40101       -4.56350       -0.57696
C         -3.06219       -3.08245       -0.54898
O         -3.64659       -2.36759        0.27241
N         -0.63471       -6.48694       -2.30086
H          1.25496       -0.49804        1.28864
H          2.30984        0.01901       -0.03761
H          0.55314        1.74883        1.17509
H          0.92491        1.87488       -0.54734
H         -1.22235        1.38321       -1.07194
H         -1.64155        1.16084        0.62757
H         -1.23229       -1.13173        0.61491
H          0.73095       -0.79378       -1.70665
H          0.72173       -2.06552       -0.46455
H         -2.93742       -0.61137       -1.20786
H         -1.67288       -0.72578       -2.41052
H         -0.92060       -2.61524       -3.13125
H         -0.41202       -3.59179       -1.75786
H         -1.35287       -4.68395       -3.99684
H         -2.92764       -4.24772       -3.37677
H         -2.67622       -6.43581       -2.62480
H         -1.35002       -5.11013       -0.20477
H         -2.46374       -6.46593       -0.26420
H         -3.86340       -4.78583        0.39424
H         -4.17441       -4.73342       -1.33427
H         -0.40974       -6.69264       -3.27370
H          0.13036       -5.92100       -1.93769

--Link1--
%chk=JID_5403.chk
%mem=8GB
%nprocshared=4
# B3LYP/6-311++G(d,p) empiricaldispersion=gd3bj scf=xqc pop=npa geom=check

CID_84121874_JID_5403_Energie_neutraal

0 1

--Link1--
%chk=JID_5403.chk
%mem=8GB
%nprocshared=4
# B3LYP/6-311++G(d,p) empiricaldispersion=gd3bj scf=xqc pop=npa geom=check

CID_84121874_JID_5403_Energie_kation

1 2

--Link1--
%chk=JID_5403.chk
%mem=8GB
%nprocshared=4
# B3LYP/6-311++G(d,p) empiricaldispersion=gd3bj scf=xqc pop=npa geom=check

CID_84121874_JID_5403_Energie_anion

-1 2
