%chk=JID_10519.chk
%mem=8GB
%nprocshared=4
# opt freq B3LYP/6-31G(d) empiricaldispersion=gd3bj scf=xqc

CID_80348291_JID_10519_neutraal

0 1
C          0.92693       -0.02759       -0.06245
C          0.94743       -0.33815        1.42692
N          1.61269        0.66973        2.25909
C          0.92878        0.80253        3.57535
C          0.92993       -0.39591        4.49866
C         -0.16496       -1.25591        4.61265
N         -0.20050       -2.33182        5.43523
C          0.89070       -2.56437        6.19155
C          2.01711       -1.76472        6.17760
C          2.02965       -0.66465        5.32617
O         -1.28635       -0.96831        3.85967
C         -2.36169       -1.87745        4.06770
C          3.09288        0.69574        2.36383
C          3.82567       -0.66677        2.34720
C          4.22074       -1.18559        0.97025
C          4.97548       -0.14203        0.16243
C          4.22382        1.17871        0.06430
C          3.82128        1.72891        1.43948
C          3.09720        3.07892        1.26168
N          2.94028        3.81093        2.51791
H          0.72640        1.03199       -0.25030
H          0.12831       -0.60101       -0.54701
H          1.85210       -0.31054       -0.55988
H         -0.11618       -0.36639        1.69281
H          1.31568       -1.35208        1.61259
H          1.35250        1.65181        4.12761
H         -0.10309        1.13170        3.39342
H          0.83045       -3.43592        6.83677
H          2.86483       -1.98899        6.81513
H          2.90249       -0.01754        5.31396
H         -2.08594       -2.89473        3.76926
H         -2.71031       -1.85008        5.10596
H         -3.19315       -1.55921        3.43124
H          3.30767        1.09712        3.36395
H          4.74784       -0.55340        2.93492
H          3.24792       -1.43539        2.87084
H          3.34221       -1.52581        0.41812
H          4.85644       -2.07112        1.09163
H          5.17441       -0.52758       -0.84406
H          5.95294        0.03546        0.62859
H          3.35331        1.07936       -0.58537
H          4.87767        1.90427       -0.43742
H          4.77248        1.95789        1.94730
H          3.68028        3.71432        0.58461
H          2.11693        2.93889        0.79317
H          2.50044        4.70893        2.31816
H          2.26806        3.30583        3.09294

--Link1--
%chk=JID_10519.chk
%mem=8GB
%nprocshared=4
# B3LYP/6-311++G(d,p) empiricaldispersion=gd3bj scf=xqc pop=npa geom=check

CID_80348291_JID_10519_Energie_neutraal

0 1

--Link1--
%chk=JID_10519.chk
%mem=8GB
%nprocshared=4
# B3LYP/6-311++G(d,p) empiricaldispersion=gd3bj scf=xqc pop=npa geom=check

CID_80348291_JID_10519_Energie_kation

1 2

--Link1--
%chk=JID_10519.chk
%mem=8GB
%nprocshared=4
# B3LYP/6-311++G(d,p) empiricaldispersion=gd3bj scf=xqc pop=npa geom=check

CID_80348291_JID_10519_Energie_anion

-1 2
