%chk=JID_4901.chk
%mem=8GB
%nprocshared=4
# opt freq B3LYP/6-31G(d) empiricaldispersion=gd3bj scf=xqc

CID_150187279_JID_4901_neutraal

0 1
C          0.93279       -0.03400       -0.06578
C          0.28446        1.34996       -0.23553
C          0.71852        1.93234       -1.59461
C         -1.24531        1.19455       -0.24001
C          0.74299        2.32314        0.87339
C          0.53921        1.81015        2.28213
O          1.39060        1.17905        2.89514
O         -0.71602        2.14122        2.71870
C         -1.25480        1.75873        3.96037
C         -0.67732        1.06860        4.95598
C         -1.33177        0.68459        6.24967
O         -1.32955       -0.71040        6.38610
O         -0.64159        1.26610        7.32162
O         -2.65551        1.12647        6.28482
H          0.68477       -0.69078       -0.90761
H          0.58932       -0.53443        0.84587
H          2.02460        0.04482       -0.01713
H          0.41012        1.28372       -2.42247
H          0.27374        2.91977       -1.76209
H          1.80759        2.04258       -1.64861
H         -1.60553        0.70494        0.67053
H         -1.74163        2.16813       -0.31951
H         -1.57634        0.58348       -1.08773
H          1.81496        2.53969        0.77164
H          0.24118        3.29481        0.77769
H         -2.27868        2.11885        4.00613
H          0.35060        0.73368        4.86688
H         -1.00785       -1.08494        5.55318
H          0.01034        1.87811        6.95045
H         -2.93512        0.79107        7.15223

--Link1--
%chk=JID_4901.chk
%mem=8GB
%nprocshared=4
# B3LYP/6-311++G(d,p) empiricaldispersion=gd3bj scf=xqc pop=npa geom=check

CID_150187279_JID_4901_Energie_neutraal

0 1

--Link1--
%chk=JID_4901.chk
%mem=8GB
%nprocshared=4
# B3LYP/6-311++G(d,p) empiricaldispersion=gd3bj scf=xqc pop=npa geom=check

CID_150187279_JID_4901_Energie_kation

1 2

--Link1--
%chk=JID_4901.chk
%mem=8GB
%nprocshared=4
# B3LYP/6-311++G(d,p) empiricaldispersion=gd3bj scf=xqc pop=npa geom=check

CID_150187279_JID_4901_Energie_anion

-1 2
