%chk=JID_5169.chk
%mem=8GB
%nprocshared=4
# opt freq B3LYP/6-31G(d) empiricaldispersion=gd3bj scf=xqc

CID_142066646_JID_5169_neutraal

0 1
C          0.90828        0.03940        0.00594
C          0.79306       -0.60877        1.37662
C          0.86888        0.39004        2.53378
C         -0.20765        1.48031        2.54088
C         -1.65873        0.98540        2.50503
C         -2.05236        0.07120        3.66573
N         -1.95932        0.72436        4.95553
C         -2.66717        1.70370        5.53304
O         -2.17728        2.28183        6.50492
N         -3.87880        2.09251        5.11430
C         -4.86883        1.47813        4.25363
C         -5.53104        0.25138        4.88032
C         -6.27776        0.52164        6.19337
C         -7.38195        1.57833        6.12958
N         -8.42302        1.23344        5.17005
H          0.05304        0.68765       -0.20581
H          0.94094       -0.73038       -0.77180
H          1.82259        0.63633       -0.07031
H         -0.13584       -1.18675        1.43075
H          1.61158       -1.32991        1.49052
H          0.83157       -0.16505        3.47854
H          1.85105        0.87942        2.51384
H         -0.06063        2.10377        3.43159
H         -0.04943        2.14732        1.68470
H         -2.31086        1.86679        2.49299
H         -1.84316        0.45748        1.56264
H         -3.05977       -0.31938        3.52268
H         -1.39587       -0.80396        3.70756
H         -1.06841        0.62627        5.42662
H         -4.22038        2.83284        5.71425
H         -5.61597        2.24794        4.03435
H         -4.41634        1.22364        3.29505
H         -6.22142       -0.18670        4.14996
H         -4.77301       -0.51491        5.08114
H         -6.71117       -0.42562        6.54014
H         -5.55585        0.82155        6.96307
H         -7.83965        1.66330        7.12156
H         -6.96751        2.56249        5.88850
H         -9.17005        1.92592        5.21942
H         -8.05993        1.27853        4.22021

--Link1--
%chk=JID_5169.chk
%mem=8GB
%nprocshared=4
# B3LYP/6-311++G(d,p) empiricaldispersion=gd3bj scf=xqc pop=npa geom=check

CID_142066646_JID_5169_Energie_neutraal

0 1

--Link1--
%chk=JID_5169.chk
%mem=8GB
%nprocshared=4
# B3LYP/6-311++G(d,p) empiricaldispersion=gd3bj scf=xqc pop=npa geom=check

CID_142066646_JID_5169_Energie_kation

1 2

--Link1--
%chk=JID_5169.chk
%mem=8GB
%nprocshared=4
# B3LYP/6-311++G(d,p) empiricaldispersion=gd3bj scf=xqc pop=npa geom=check

CID_142066646_JID_5169_Energie_anion

-1 2
