%chk=JID_7530.chk
%mem=8GB
%nprocshared=4
# opt freq B3LYP/6-31G(d) empiricaldispersion=gd3bj scf=xqc

CID_107142918_JID_7530_neutraal

0 1
C         -1.21700       -0.05100        1.48200
C         -0.84439       -0.54948        0.07389
C         -0.36850        0.61897       -0.81773
C          1.04933        1.09347       -0.51207
C          2.04907       -0.06085       -0.56693
C          1.68857       -1.22044        0.37661
C          0.22992       -1.66519        0.13159
N          1.89421       -0.83634        1.77103
C          3.10371       -1.33109        2.46665
C          4.30479       -1.71838        1.55212
N          5.19463       -0.90290        2.41273
C          4.01277       -0.11537        2.83809
C          2.76776       -2.33281        3.56888
C          1.84623       -1.86610        4.65885
O          1.20409       -2.60210        5.39418
O          1.82665       -0.53884        4.87000
C         -2.12933       -1.14052       -0.54754
H         -0.41038        0.50652        1.96186
H         -2.07990        0.62438        1.44137
H         -1.48517       -0.88622        2.13875
H         -0.39752        0.30786       -1.87082
H         -1.05871        1.46781       -0.73213
H          1.08187        1.58806        0.46460
H          1.33979        1.85349       -1.24723
H          3.05088        0.32527       -0.34594
H          2.09022       -0.44375       -1.59500
H          2.29989       -2.09428        0.12531
H         -0.05468       -2.42401        0.87325
H          0.22413       -2.19046       -0.83508
H          1.67870        0.14478        1.93433
H          4.55796       -2.78406        1.53011
H          4.31838       -1.35612        0.51997
H          5.62224       -1.43203        3.17287
H          3.87580        0.78902        2.23067
H          4.04158        0.18887        3.88781
H          2.30202       -3.21623        3.11396
H          3.68436       -2.67172        4.06736
H          1.19919       -0.43334        5.61564
H         -2.91995       -0.38431       -0.61617
H         -1.94592       -1.51644       -1.56058
H         -2.51229       -1.97354        0.05240

--Link1--
%chk=JID_7530.chk
%mem=8GB
%nprocshared=4
# B3LYP/6-311++G(d,p) empiricaldispersion=gd3bj scf=xqc pop=npa geom=check

CID_107142918_JID_7530_Energie_neutraal

0 1

--Link1--
%chk=JID_7530.chk
%mem=8GB
%nprocshared=4
# B3LYP/6-311++G(d,p) empiricaldispersion=gd3bj scf=xqc pop=npa geom=check

CID_107142918_JID_7530_Energie_kation

1 2

--Link1--
%chk=JID_7530.chk
%mem=8GB
%nprocshared=4
# B3LYP/6-311++G(d,p) empiricaldispersion=gd3bj scf=xqc pop=npa geom=check

CID_107142918_JID_7530_Energie_anion

-1 2
