%chk=JID_7801.chk
%mem=8GB
%nprocshared=4
# opt freq B3LYP/6-31G(d) empiricaldispersion=gd3bj scf=xqc

CID_80019921_JID_7801_neutraal

0 1
C          1.07296       -0.06495       -0.02142
C          1.47238       -1.46217        0.42546
C          1.23667       -1.73336        1.91590
C         -0.16206       -1.40539        2.45208
C         -1.34250       -1.99552        1.66698
N         -2.03989       -3.11737        2.27358
C         -3.38096       -2.88216        2.80153
C         -4.43734       -2.56711        1.69556
C         -4.53504       -3.69935        0.63793
S         -5.22100       -5.30049        1.15596
C         -5.80576       -2.00753        2.26172
C         -5.56680       -0.60390        2.87557
C         -6.83641       -1.82388        1.12634
C         -6.43908       -2.87935        3.36049
C         -1.44624       -4.43496        2.44722
C         -0.64510       -4.90565        1.23104
C         -0.62322       -4.54948        3.73067
H         -0.00571        0.09559        0.06093
H          1.34969        0.08685       -1.06975
H          1.58368        0.69672        0.57622
H          0.94212       -2.20126       -0.18465
H          2.53863       -1.60845        0.21359
H          1.47990       -2.78024        2.12078
H          1.96242       -1.14467        2.49209
H         -0.22128       -1.68361        3.51105
H         -0.26894       -0.31194        2.45243
H         -2.04576       -1.16250        1.54490
H         -1.06930       -2.25412        0.64100
H         -3.71705       -3.73943        3.39614
H         -3.31481       -2.05304        3.51370
H         -4.03421       -1.72514        1.11421
H         -5.13020       -3.35647       -0.21465
H         -3.54252       -3.90109        0.22190
H         -4.29190       -5.58788        2.07530
H         -5.08451        0.06765        2.15645
H         -6.51320       -0.13695        3.17372
H         -4.93992       -0.64791        3.77118
H         -7.16442       -2.78275        0.71298
H         -7.73609       -1.31058        1.48529
H         -6.41971       -1.22378        0.30937
H         -6.75065       -3.85725        2.98986
H         -5.75937       -3.03198        4.20427
H         -7.34116       -2.40064        3.76126
H         -2.25717       -5.16545        2.54728
H          0.26724       -4.32630        1.07904
H         -0.35048       -5.95389        1.35211
H         -1.24600       -4.84052        0.31747
H         -1.20472       -4.23272        4.60316
H         -0.32580       -5.59119        3.89755
H          0.29226       -3.95491        3.69562

--Link1--
%chk=JID_7801.chk
%mem=8GB
%nprocshared=4
# B3LYP/6-311++G(d,p) empiricaldispersion=gd3bj scf=xqc pop=npa geom=check

CID_80019921_JID_7801_Energie_neutraal

0 1

--Link1--
%chk=JID_7801.chk
%mem=8GB
%nprocshared=4
# B3LYP/6-311++G(d,p) empiricaldispersion=gd3bj scf=xqc pop=npa geom=check

CID_80019921_JID_7801_Energie_kation

1 2

--Link1--
%chk=JID_7801.chk
%mem=8GB
%nprocshared=4
# B3LYP/6-311++G(d,p) empiricaldispersion=gd3bj scf=xqc pop=npa geom=check

CID_80019921_JID_7801_Energie_anion

-1 2
