%chk=JID_8413.chk
%mem=8GB
%nprocshared=4
# opt freq B3LYP/6-31G(d) empiricaldispersion=gd3bj scf=xqc

CID_68099506_JID_8413_neutraal

0 1
C          3.39300       -0.00600       -0.07000
N          1.98573        0.34282       -0.00815
C          1.58678        1.62987       -0.55085
C          0.28126        2.11836        0.06519
C         -0.78167        1.05414       -0.01586
C         -0.39195       -0.29812       -0.01591
C          1.04867       -0.68358        0.08903
O          1.35037       -1.86156        0.25490
C         -1.34873       -1.32377       -0.10058
C         -2.70360       -1.01690       -0.18892
C         -3.10094        0.31956       -0.16840
C         -2.15625        1.35037       -0.05718
C         -2.69808        2.72799       -0.00471
O         -3.59069        3.13232       -0.72997
O         -2.11188        3.40613        1.01159
C         -2.62333        4.72722        1.19325
O         -3.72793       -1.91653       -0.28657
C         -3.37535       -3.29488       -0.32397
H          3.59413       -0.93021        0.47894
H          3.67502       -0.14583       -1.11774
H          3.98498        0.80152        0.36979
H          2.37674        2.36394       -0.35725
H          1.48421        1.51233       -1.63683
H          0.43844        2.37268        1.12039
H         -0.02406        3.02439       -0.46918
H         -1.00316       -2.35389       -0.09741
H         -4.16215        0.55886       -0.22720
H         -2.46242        5.32846        0.29284
H         -3.68595        4.69392        1.45333
H         -2.07818        5.19027        2.02032
H         -2.75419       -3.51981       -1.19727
H         -2.88074       -3.60024        0.60397
H         -4.29965       -3.87350       -0.41476

--Link1--
%chk=JID_8413.chk
%mem=8GB
%nprocshared=4
# B3LYP/6-311++G(d,p) empiricaldispersion=gd3bj scf=xqc pop=npa geom=check

CID_68099506_JID_8413_Energie_neutraal

0 1

--Link1--
%chk=JID_8413.chk
%mem=8GB
%nprocshared=4
# B3LYP/6-311++G(d,p) empiricaldispersion=gd3bj scf=xqc pop=npa geom=check

CID_68099506_JID_8413_Energie_kation

1 2

--Link1--
%chk=JID_8413.chk
%mem=8GB
%nprocshared=4
# B3LYP/6-311++G(d,p) empiricaldispersion=gd3bj scf=xqc pop=npa geom=check

CID_68099506_JID_8413_Energie_anion

-1 2
