%chk=JID_10715.chk
%mem=8GB
%nprocshared=4
# opt freq B3LYP/6-31G(d) empiricaldispersion=gd3bj scf=xqc

CID_81466110_JID_10715_neutraal

0 1
C          1.06204       -0.03414        0.07061
C          0.22972        0.50561       -1.08650
C         -1.26866        0.21607       -0.89767
C         -1.99382        1.52951       -1.22154
C         -0.90973        2.35562       -1.92852
N          0.31237        1.97016       -1.20208
C          1.51225        2.42793       -1.89180
N         -2.40012        2.16572        0.04794
C         -3.30826        3.23607       -0.02320
C         -3.08685        4.37425        0.76242
C         -3.98410        5.44587        0.75886
C         -5.11282        5.39544       -0.06577
C         -5.39863        4.23400       -0.80142
C         -4.49400        3.16467       -0.76826
O         -6.56127        4.24889       -1.53127
C         -7.02059        3.00515       -2.04283
O         -5.97955        6.46081       -0.12512
C         -5.61852        7.31068       -1.21424
O         -3.62492        6.50994        1.54574
C         -4.69062        7.02828        2.33941
H          0.91742       -1.11481        0.17520
H          0.78001        0.43526        1.01976
H          2.13020        0.14376       -0.08959
H          0.55696        0.02382       -2.01831
H         -1.57500       -0.55895       -1.61109
H         -1.51002       -0.14949        0.10736
H         -2.84762        1.32942       -1.87536
H         -1.08935        3.43398       -1.86929
H         -0.85221        2.06512       -2.98571
H          1.59952        2.01056       -2.90129
H          1.50900        3.52057       -1.97288
H          2.41173        2.15814       -1.32913
H         -1.55225        2.43828        0.55216
H         -2.20167        4.43983        1.39016
H         -4.70843        2.25325       -1.31229
H         -6.36690        2.64722       -2.84468
H         -7.11997        2.25761       -1.24858
H         -8.01384        3.16717       -2.47259
H         -4.60337        7.70430       -1.09115
H         -5.71187        6.79390       -2.17548
H         -6.31022        8.15843       -1.21910
H         -5.19438        7.84371        1.81261
H         -5.40651        6.25641        2.64440
H         -4.25034        7.44871        3.24902

--Link1--
%chk=JID_10715.chk
%mem=8GB
%nprocshared=4
# B3LYP/6-311++G(d,p) empiricaldispersion=gd3bj scf=xqc pop=npa geom=check

CID_81466110_JID_10715_Energie_neutraal

0 1

--Link1--
%chk=JID_10715.chk
%mem=8GB
%nprocshared=4
# B3LYP/6-311++G(d,p) empiricaldispersion=gd3bj scf=xqc pop=npa geom=check

CID_81466110_JID_10715_Energie_kation

1 2

--Link1--
%chk=JID_10715.chk
%mem=8GB
%nprocshared=4
# B3LYP/6-311++G(d,p) empiricaldispersion=gd3bj scf=xqc pop=npa geom=check

CID_81466110_JID_10715_Energie_anion

-1 2
