%chk=JID_8680.chk
%mem=8GB
%nprocshared=4
# opt freq B3LYP/6-31G(d) empiricaldispersion=gd3bj scf=xqc

CID_89848229_JID_8680_neutraal

0 1
C          0.93757       -0.02681       -0.07338
C          0.20238       -0.74239        1.06245
C          0.64051       -0.17967        2.41624
C         -1.31109       -0.71910        0.95939
N         -1.95308       -1.75182        1.56376
C         -3.30909       -1.76999        1.52250
C         -4.07344       -0.78264        0.92374
C         -3.40714        0.25612        0.28044
C         -2.01210        0.29813        0.31097
C         -5.54050       -0.91582        0.93849
O         -6.04735       -2.02041        0.76230
N         -6.35006        0.17361        1.14920
C         -6.01871        1.44038        1.78625
C         -6.34788        2.63381        0.89017
C         -7.84599        2.83871        0.67157
N         -8.47466        3.20425        1.94541
N         -9.70759        3.36978        1.90613
N        -10.83647        3.51792        1.86768
H          0.78333        1.05721       -0.04357
H          0.60541       -0.39255       -1.05112
H          2.01641       -0.20404       -0.00066
H          0.50900       -1.79661        1.02194
H          0.34710        0.87032        2.52703
H          0.18800       -0.73949        3.24254
H          1.72820       -0.24183        2.52945
H         -3.77201       -2.62616        2.00687
H         -3.95640        1.02433       -0.25325
H         -1.49777        1.11994       -0.17515
H         -7.32604       -0.10113        1.17715
H         -6.58763        1.48244        2.72125
H         -4.96303        1.46247        2.06713
H         -5.92528        3.53898        1.34323
H         -5.86560        2.50594       -0.08600
H         -7.99261        3.64778       -0.05434
H         -8.30639        1.93316        0.25965

--Link1--
%chk=JID_8680.chk
%mem=8GB
%nprocshared=4
# B3LYP/6-311++G(d,p) empiricaldispersion=gd3bj scf=xqc pop=npa geom=check

CID_89848229_JID_8680_Energie_neutraal

0 1

--Link1--
%chk=JID_8680.chk
%mem=8GB
%nprocshared=4
# B3LYP/6-311++G(d,p) empiricaldispersion=gd3bj scf=xqc pop=npa geom=check

CID_89848229_JID_8680_Energie_kation

1 2

--Link1--
%chk=JID_8680.chk
%mem=8GB
%nprocshared=4
# B3LYP/6-311++G(d,p) empiricaldispersion=gd3bj scf=xqc pop=npa geom=check

CID_89848229_JID_8680_Energie_anion

-1 2
