%chk=JID_6065.chk
%mem=8GB
%nprocshared=4
# opt freq B3LYP/6-31G(d) empiricaldispersion=gd3bj scf=xqc

CID_87446497_JID_6065_neutraal

0 1
C          0.91429       -0.04586        0.02345
C          0.40403       -0.27524       -1.40771
C          0.86992       -1.65868       -1.87515
C         -1.12347       -0.15378       -1.40986
O          1.01489        0.78026       -2.19058
C          0.79356        0.87889       -3.51966
O          0.10212        0.12875       -4.19424
N          1.45168        1.92734       -4.09166
C          2.10708        3.03410       -3.39086
C          3.36852        3.47290       -4.13964
C          3.09280        4.22613       -5.40963
O          3.52391        5.33140       -5.69116
O          2.32577        3.54927       -6.28481
C          1.13692        4.21359       -3.15384
O          0.14508        3.87036       -2.18280
C         -1.16068        3.78370       -2.73748
H          0.51720       -0.79011        0.72169
H          0.63195        0.95097        0.38210
H          2.00927       -0.08749        0.05796
H          0.54769       -2.44299       -1.18171
H          0.47212       -1.91287       -2.86215
H          1.96207       -1.69351       -1.95778
H         -1.43289        0.86284       -1.14280
H         -1.54850       -0.36132       -2.39650
H         -1.57973       -0.85365       -0.70151
H          1.26196        2.03349       -5.08236
H          2.42189        2.65707       -2.41052
H          3.95586        4.13560       -3.49200
H          4.00582        2.61475       -4.38250
H          2.29265        4.13218       -7.07487
H          1.69384        5.06067       -2.73790
H          0.67522        4.55003       -4.09050
H         -1.47566        4.76090       -3.11638
H         -1.19791        3.04133       -3.53948
H         -1.85100        3.47883       -1.94660

--Link1--
%chk=JID_6065.chk
%mem=8GB
%nprocshared=4
# B3LYP/6-311++G(d,p) empiricaldispersion=gd3bj scf=xqc pop=npa geom=check

CID_87446497_JID_6065_Energie_neutraal

0 1

--Link1--
%chk=JID_6065.chk
%mem=8GB
%nprocshared=4
# B3LYP/6-311++G(d,p) empiricaldispersion=gd3bj scf=xqc pop=npa geom=check

CID_87446497_JID_6065_Energie_kation

1 2

--Link1--
%chk=JID_6065.chk
%mem=8GB
%nprocshared=4
# B3LYP/6-311++G(d,p) empiricaldispersion=gd3bj scf=xqc pop=npa geom=check

CID_87446497_JID_6065_Energie_anion

-1 2
