%chk=JID_8984.chk
%mem=8GB
%nprocshared=4
# opt freq B3LYP/6-31G(d) empiricaldispersion=gd3bj scf=xqc

CID_91843690_JID_8984_neutraal

0 1
C          1.07794       -0.02392        0.05791
C         -0.28531       -0.59892       -0.06982
N         -0.65390       -1.47349       -0.98533
C         -2.00014       -1.64681       -0.82296
C         -2.46213       -0.88524        0.22108
N         -1.35344       -0.26425        0.73445
C         -1.34196        0.63212        1.88017
C         -2.15603        0.12883        3.07004
C         -1.31899        0.13998        4.32494
O         -1.24335        1.14157        5.03412
N         -0.59592       -0.97035        4.64693
C         -0.61637       -2.25996        3.97938
C          0.38868       -3.25463        4.58246
C          1.84769       -2.78712        4.45221
C          2.36210       -2.87969        3.01704
N          2.20481       -4.22936        2.48167
C          0.81238       -4.67248        2.50683
C          0.24493       -4.63821        3.92700
H          1.04946        1.06378       -0.05927
H          1.73859       -0.42954       -0.71475
H          1.51359       -0.26073        1.03199
H         -2.56701       -2.29968       -1.47376
H         -3.45454       -0.75047        0.62766
H         -0.29899        0.81369        2.15850
H         -1.75449        1.58097        1.51680
H         -3.00960        0.79601        3.24389
H         -2.58245       -0.86748        2.92247
H         -0.12434       -0.89172        5.54212
H         -1.63392       -2.65508        4.08088
H         -0.43645       -2.09174        2.91443
H          0.15852       -3.35483        5.65165
H          1.96708       -1.76249        4.82136
H          2.47639       -3.41824        5.09493
H          1.84889       -2.15650        2.37556
H          3.42540       -2.61626        3.00251
H          2.54413       -4.25149        1.51897
H          0.76403       -5.69990        2.12958
H          0.20642       -4.05958        1.82947
H          0.77782       -5.37705        4.54045
H         -0.80674       -4.94781        3.91247

--Link1--
%chk=JID_8984.chk
%mem=8GB
%nprocshared=4
# B3LYP/6-311++G(d,p) empiricaldispersion=gd3bj scf=xqc pop=npa geom=check

CID_91843690_JID_8984_Energie_neutraal

0 1

--Link1--
%chk=JID_8984.chk
%mem=8GB
%nprocshared=4
# B3LYP/6-311++G(d,p) empiricaldispersion=gd3bj scf=xqc pop=npa geom=check

CID_91843690_JID_8984_Energie_kation

1 2

--Link1--
%chk=JID_8984.chk
%mem=8GB
%nprocshared=4
# B3LYP/6-311++G(d,p) empiricaldispersion=gd3bj scf=xqc pop=npa geom=check

CID_91843690_JID_8984_Energie_anion

-1 2
