%chk=JID_5393.chk
%mem=8GB
%nprocshared=4
# opt freq B3LYP/6-31G(d) empiricaldispersion=gd3bj scf=xqc

CID_130689204_JID_5393_neutraal

0 1
C          1.08526        0.03639        0.03749
C          0.94452       -1.42698        0.47720
C          1.43994       -1.62343        1.91527
C         -0.54647       -1.92941        0.41183
O         -0.81773       -3.02863       -0.09445
N         -1.59098       -1.25474        0.96417
C         -1.66632        0.06851        1.52865
N          1.67349       -2.23268       -0.54091
C          3.11601       -2.40071       -0.41236
C          3.55216       -3.55549        0.46276
C          3.08709       -4.85959        0.23226
C          3.51409       -5.92047        1.03353
C          4.42165       -5.69511        2.06582
C          4.90775       -4.41016        2.29454
C          4.48047       -3.34827        1.49490
H          0.77556        0.73393        0.82019
H          0.48464        0.24512       -0.85542
H          2.12459        0.29837       -0.19192
H          0.81530       -1.08993        2.63750
H          1.40631       -2.67942        2.20624
H          2.45993       -1.25096        2.05154
H         -2.46787       -1.73456        0.79532
H         -1.59270        0.80312        0.72348
H         -2.63523        0.17374        2.02345
H         -0.87316        0.22492        2.25919
H          1.21126       -3.14424       -0.60952
H          3.51714       -2.59831       -1.41458
H          3.59298       -1.46663       -0.09440
H          2.38860       -5.06070       -0.57710
H          3.13890       -6.92355        0.84817
H          4.75363       -6.52188        2.68785
H          5.62195       -4.23433        3.09453
H          4.87587       -2.35325        1.68597

--Link1--
%chk=JID_5393.chk
%mem=8GB
%nprocshared=4
# B3LYP/6-311++G(d,p) empiricaldispersion=gd3bj scf=xqc pop=npa geom=check

CID_130689204_JID_5393_Energie_neutraal

0 1

--Link1--
%chk=JID_5393.chk
%mem=8GB
%nprocshared=4
# B3LYP/6-311++G(d,p) empiricaldispersion=gd3bj scf=xqc pop=npa geom=check

CID_130689204_JID_5393_Energie_kation

1 2

--Link1--
%chk=JID_5393.chk
%mem=8GB
%nprocshared=4
# B3LYP/6-311++G(d,p) empiricaldispersion=gd3bj scf=xqc pop=npa geom=check

CID_130689204_JID_5393_Energie_anion

-1 2
