%chk=JID_6635.chk
%mem=8GB
%nprocshared=4
# opt freq B3LYP/6-31G(d) empiricaldispersion=gd3bj scf=xqc

CID_128186659_JID_6635_neutraal

0 1
C          1.02417        0.08839        0.04004
N          0.74596       -1.20270        0.63072
C          1.39682       -2.38204        0.39106
C          0.80655       -3.32886        1.21225
C         -0.17938       -2.59480        1.91294
N         -0.24496       -1.31583        1.53685
C          1.21903       -4.71416        1.37350
O          2.40329       -5.01699        1.25210
N          0.25009       -5.65169        1.73724
C          0.69799       -6.96197        2.20456
C          0.49565       -8.02849        1.13276
C         -0.95897       -8.05045        0.66493
C         -1.40689       -6.66021        0.21451
C         -1.14561       -5.60595        1.29362
C          2.46257       -2.53507       -0.53525
N          3.30819       -2.58871       -1.32706
H          0.44448        0.85724        0.55769
H          0.73843        0.04986       -1.01389
H          2.09102        0.29944        0.14686
H         -0.84845       -2.94240        2.69058
H          0.10860       -7.20637        3.09654
H          1.74840       -6.93069        2.51228
H          0.77496       -9.01175        1.52684
H          1.14906       -7.82132        0.27646
H         -1.07576       -8.76534       -0.15698
H         -1.60211       -8.39394        1.48465
H         -0.86132       -6.38858       -0.69791
H         -2.47280       -6.67690       -0.03827
H         -1.41139       -4.63049        0.88325
H         -1.77637       -5.79116        2.17042

--Link1--
%chk=JID_6635.chk
%mem=8GB
%nprocshared=4
# B3LYP/6-311++G(d,p) empiricaldispersion=gd3bj scf=xqc pop=npa geom=check

CID_128186659_JID_6635_Energie_neutraal

0 1

--Link1--
%chk=JID_6635.chk
%mem=8GB
%nprocshared=4
# B3LYP/6-311++G(d,p) empiricaldispersion=gd3bj scf=xqc pop=npa geom=check

CID_128186659_JID_6635_Energie_kation

1 2

--Link1--
%chk=JID_6635.chk
%mem=8GB
%nprocshared=4
# B3LYP/6-311++G(d,p) empiricaldispersion=gd3bj scf=xqc pop=npa geom=check

CID_128186659_JID_6635_Energie_anion

-1 2
