%chk=JID_5857.chk
%mem=8GB
%nprocshared=4
# opt freq B3LYP/6-31G(d) empiricaldispersion=gd3bj scf=xqc

CID_120848426_JID_5857_neutraal

0 1
C          1.09076       -0.03325        0.02563
N         -0.07554        0.07093        0.91230
C         -1.27287        0.41628        0.12315
C         -2.59898        0.07952        0.85115
C         -2.73385       -1.41448        1.19214
C         -3.00744       -2.27057       -0.04321
N         -4.19336       -1.80503       -0.76340
C         -4.06468       -0.41103       -1.18181
C         -3.81302        0.51220        0.01032
C          0.18297        1.07094        1.96403
C          0.99655        0.52782        3.13622
C          0.24026       -0.33939        4.13368
C          1.31627       -0.95605        3.29718
C          1.97457        1.52760        3.70423
O          3.05226        1.70136        2.79482
H          0.94556       -0.84185       -0.69963
H          1.99853       -0.28145        0.58543
H          1.27304        0.89604       -0.52659
H         -1.25396        1.47998       -0.15037
H         -1.24928       -0.13786       -0.82264
H         -2.63905        0.64483        1.78958
H         -1.84079       -1.78450        1.70750
H         -3.56568       -1.53857        1.89879
H         -2.13814       -2.28414       -0.71056
H         -3.17641       -3.30579        0.27341
H         -4.34203       -2.39334       -1.58266
H         -4.99450       -0.10613       -1.67484
H         -3.26774       -0.31055       -1.92737
H         -4.70387        0.51000        0.65293
H         -3.68696        1.54363       -0.33943
H          0.66747        1.95662        1.53084
H         -0.75391        1.44359        2.39417
H          0.42978       -0.21007        5.19315
H         -0.78503       -0.61548        3.90805
H          1.00659       -1.65940        2.53236
H          2.23911       -1.23973        3.79066
H          1.49217        2.49757        3.86329
H          2.38968        1.20009        4.66363
H          3.41253        0.81406        2.62515

--Link1--
%chk=JID_5857.chk
%mem=8GB
%nprocshared=4
# B3LYP/6-311++G(d,p) empiricaldispersion=gd3bj scf=xqc pop=npa geom=check

CID_120848426_JID_5857_Energie_neutraal

0 1

--Link1--
%chk=JID_5857.chk
%mem=8GB
%nprocshared=4
# B3LYP/6-311++G(d,p) empiricaldispersion=gd3bj scf=xqc pop=npa geom=check

CID_120848426_JID_5857_Energie_kation

1 2

--Link1--
%chk=JID_5857.chk
%mem=8GB
%nprocshared=4
# B3LYP/6-311++G(d,p) empiricaldispersion=gd3bj scf=xqc pop=npa geom=check

CID_120848426_JID_5857_Energie_anion

-1 2
