%chk=JID_10430.chk
%mem=8GB
%nprocshared=4
# opt=(cartesian,calcfc) freq B3LYP/6-31G(d) empiricaldispersion=gd3bj scf=xqc

CID_79904914_JID_10430_neutraal

0 1
6	2.702484	 -2.480183	 1.622783
8	2.119186	 -1.179375	 1.764765
6	2.198623	 -0.410074	 0.630922
6	1.439618	 -0.714846	 -0.500543
6	1.527895	 0.130219	 -1.625976
6	2.352462	 1.242221	 -1.590502
6	3.082572	 1.562304	 -0.474465
6	3.017786	 0.736593	 0.656954
7	3.871876	 2.748251	 -0.419676
8	0.633510	 -1.826846	 -0.566286
6	-0.498734	 -1.923782	 0.324485
6	-1.554424	 -2.700833	 -0.464966
6	-2.003990	 -1.847016	 -1.671815
8	-1.696071	 -0.466743	 -1.564598
6	-1.908677	 0.125313	 -0.281740
6	-1.078858	 -0.605909	 0.818914
6	-3.407380	 0.194170	 0.082997
6	-3.562988	 1.190059	 1.229136
16	-2.284035	 2.506812	 0.951410
6	-1.477682	 1.594236	 -0.425790
1	2.532544	 -2.995527	 2.574031
1	3.783408	 -2.398150	 1.443086
1	2.238935	 -3.037987	 0.807610
1	0.910600	 -0.111260	 -2.479273
1	2.391835	 1.901641	 -2.485596
1	3.569209	 0.947810	 1.556016
1	4.627135	 2.710126	 0.244762
1	4.180019	 3.063506	 -1.318311
1	-0.177215	 -2.512026	 1.207968
1	-1.183888	 -3.648084	 -0.776932
1	-2.415654	 -2.877521	 0.213668
1	-1.450765	 -2.177805	 -2.572753
1	-3.073001	 -1.990707	 -1.874481
1	-1.715751	 -0.843856	 1.672766
1	-0.290721	 0.043970	 1.201854
1	-3.949159	 0.547442	 -0.806904
1	-3.811041	 -0.787976	 0.354240
1	-3.375252	 0.719396	 2.200064
1	-4.555882	 1.644320	 1.256103
1	-0.397577	 1.711372	 -0.362683
1	-1.821581	 1.973474	 -1.393474

--Link1--
%chk=JID_10430.chk
%mem=8GB
%nprocshared=4
# B3LYP/6-311++G(d,p) empiricaldispersion=gd3bj scf=xqc pop=npa geom=check

CID_79904914_JID_10430_Energie_neutraal

0 1

--Link1--
%chk=JID_10430.chk
%mem=8GB
%nprocshared=4
# B3LYP/6-311++G(d,p) empiricaldispersion=gd3bj scf=xqc pop=npa geom=check

CID_79904914_JID_10430_Energie_kation

1 2

--Link1--
%chk=JID_10430.chk
%mem=8GB
%nprocshared=4
# B3LYP/6-311++G(d,p) empiricaldispersion=gd3bj scf=xqc pop=npa geom=check

CID_79904914_JID_10430_Energie_anion

-1 2
