%chk=JID_10205.chk
%mem=8GB
%nprocshared=4
# opt freq B3LYP/6-31G(d) empiricaldispersion=gd3bj scf=xqc

CID_134789137_JID_10205_neutraal

0 1
C          1.60800       -1.26800       -0.12700
C          2.52421       -0.08716        0.22066
N          1.83167        1.15274       -0.17652
C          0.45904        0.79626       -0.17607
C         -0.65185        1.62025       -0.22808
C         -1.92927        1.04597       -0.23077
C         -2.09004       -0.34560       -0.19113
C         -0.97557       -1.18038       -0.14750
C          0.28013       -0.59264       -0.13339
C          2.48967        2.40760        0.07743
C          2.10841        3.58371       -0.84129
N          1.93171        4.44704        0.34550
C          1.94467        3.26700        1.23554
C          3.03877        5.39212        0.57287
C          4.46797        4.89016        0.66187
C          5.02745        4.53742        1.90015
C          6.34116        4.07240        1.98423
C          7.11748        3.96397        0.83306
C          6.58396        4.32831       -0.40095
C          5.27033        4.79414       -0.48545
H          1.67950       -2.06522        0.61786
H          1.83381       -1.66315       -1.12293
H          3.49178       -0.18299       -0.28478
H          2.71291       -0.06509        1.30267
H         -0.55964        2.69917       -0.26173
H         -2.80527        1.68891       -0.26815
H         -3.08923       -0.77352       -0.20023
H         -1.09118       -2.25880       -0.12824
H          3.57700        2.26421        0.12443
H          2.87205        3.88254       -1.56525
H          1.18459        3.46113       -1.41665
H          0.94367        3.00682        1.59673
H          2.57889        3.31583        2.12498
H          2.99489        6.15716       -0.21416
H          2.81689        5.94489        1.49576
H          4.43981        4.62460        2.81167
H          6.75879        3.79786        2.94940
H          8.14028        3.60253        0.89829
H          7.19130        4.25280       -1.29931
H          4.87615        5.08407       -1.45697

--Link1--
%chk=JID_10205.chk
%mem=8GB
%nprocshared=4
# B3LYP/6-311++G(d,p) empiricaldispersion=gd3bj scf=xqc pop=npa geom=check

CID_134789137_JID_10205_Energie_neutraal

0 1

--Link1--
%chk=JID_10205.chk
%mem=8GB
%nprocshared=4
# B3LYP/6-311++G(d,p) empiricaldispersion=gd3bj scf=xqc pop=npa geom=check

CID_134789137_JID_10205_Energie_kation

1 2

--Link1--
%chk=JID_10205.chk
%mem=8GB
%nprocshared=4
# B3LYP/6-311++G(d,p) empiricaldispersion=gd3bj scf=xqc pop=npa geom=check

CID_134789137_JID_10205_Energie_anion

-1 2
