%chk=JID_4051.chk
%mem=8GB
%nprocshared=4
# opt freq B3LYP/6-31G(d) empiricaldispersion=gd3bj scf=xqc

CID_130523188_JID_4051_neutraal

0 1
C         -1.43100        0.32400       -0.23100
C         -0.98786       -1.02791        0.31686
C          0.46027       -1.33798       -0.05445
C          1.41931       -0.22262        0.40289
C          0.96281        1.12844       -0.17201
C         -0.48560        1.43990        0.19979
C          2.85823       -0.57236       -0.01360
C          3.98519        0.36113        0.47188
N          4.28846        0.43503        1.90353
C          3.48933        1.37854        2.67229
C          3.48882        0.78207        4.06460
C          3.46016       -0.70269        3.77212
O          4.08613       -0.88244        2.49796
O          2.38403        1.20158        4.85638
H         -2.44712        0.54713        0.11315
H         -1.46714        0.27942       -1.32649
H         -1.09324       -1.03231        1.40877
H         -1.64417       -1.81546       -0.07028
H          0.53428       -1.47230       -1.14129
H          0.75048       -2.29097        0.40410
H          1.36299       -0.18381        1.49630
H          1.06000        1.11825       -1.26525
H          1.59910        1.94150        0.19181
H         -0.79127        2.38202       -0.26913
H         -0.55984        1.58418        1.28476
H          3.08619       -1.59699        0.30793
H          2.90614       -0.59876       -1.11106
H          4.90557        0.00497       -0.00966
H          3.84018        1.37157        0.07124
H          3.93997        2.37656        2.66916
H          2.46620        1.49358        2.30782
H          4.41399        1.04436        4.59104
H          2.43965       -1.09744        3.71951
H          4.00474       -1.27474        4.52962
H          1.56690        1.01530        4.36213

--Link1--
%chk=JID_4051.chk
%mem=8GB
%nprocshared=4
# B3LYP/6-311++G(d,p) empiricaldispersion=gd3bj scf=xqc pop=npa geom=check

CID_130523188_JID_4051_Energie_neutraal

0 1

--Link1--
%chk=JID_4051.chk
%mem=8GB
%nprocshared=4
# B3LYP/6-311++G(d,p) empiricaldispersion=gd3bj scf=xqc pop=npa geom=check

CID_130523188_JID_4051_Energie_kation

1 2

--Link1--
%chk=JID_4051.chk
%mem=8GB
%nprocshared=4
# B3LYP/6-311++G(d,p) empiricaldispersion=gd3bj scf=xqc pop=npa geom=check

CID_130523188_JID_4051_Energie_anion

-1 2
