%chk=JID_1055.chk
%mem=8GB
%nprocshared=4
# opt freq B3LYP/6-31G(d) empiricaldispersion=gd3bj scf=xqc

CID_67764881_JID_1055_neutraal

0 1
C          0.93480       -0.04850        0.05827
C          0.47191        0.67323       -1.19762
N          1.46162        0.56730       -2.27389
C          1.29525       -0.58048       -3.17398
C          2.57222       -1.17249       -3.77667
C          3.04164       -0.40245       -5.00907
C          2.97068        1.11146       -4.85088
C          3.44023        1.56899       -3.48216
C          2.37613        1.60364       -2.39750
O          2.39980        2.54062       -1.59243
O          2.35705       -2.53695       -4.15019
H          1.09937       -1.11333       -0.13549
H          0.18329        0.04300        0.84837
H          1.87538        0.37177        0.42915
H         -0.48002        0.25940       -1.55014
H          0.28433        1.72612       -0.95903
H          0.79898       -1.37595       -2.60283
H          0.58528       -0.28976       -3.95799
H          3.36201       -1.18946       -3.01732
H          2.46174       -0.69623       -5.89339
H          4.07348       -0.70421       -5.23187
H          1.94933        1.46278       -5.04111
H          3.60210        1.56396       -5.62521
H          3.79186        2.60399       -3.59052
H          4.29564        0.98728       -3.12169
H          1.69446       -2.56119       -4.86197

--Link1--
%chk=JID_1055.chk
%mem=8GB
%nprocshared=4
# B3LYP/6-311++G(d,p) empiricaldispersion=gd3bj scf=xqc pop=npa geom=check

CID_67764881_JID_1055_Energie_neutraal

0 1

--Link1--
%chk=JID_1055.chk
%mem=8GB
%nprocshared=4
# B3LYP/6-311++G(d,p) empiricaldispersion=gd3bj scf=xqc pop=npa geom=check

CID_67764881_JID_1055_Energie_kation

1 2

--Link1--
%chk=JID_1055.chk
%mem=8GB
%nprocshared=4
# B3LYP/6-311++G(d,p) empiricaldispersion=gd3bj scf=xqc pop=npa geom=check

CID_67764881_JID_1055_Energie_anion

-1 2
