%chk=JID_9016.chk
%mem=8GB
%nprocshared=4
# opt=(cartesian,calcfc) freq B3LYP/6-31G(d) empiricaldispersion=gd3bj scf=xqc

CID_121742465_JID_9016_neutraal

0 1
6	-0.801099	 1.920068	 1.605033
6	0.571291	 1.591566	 1.006762
6	0.716637	 0.083352	 0.705162
7	-0.190823	 -0.290178	 -0.393612
6	0.119058	 0.285096	 -1.696513
6	-0.117166	 1.795186	 -1.703455
16	0.942187	 2.646664	 -0.470529
6	-1.364347	 -0.929972	 -0.074047
8	-1.580396	 -1.335589	 1.071775
6	-2.406839	 -1.119026	 -1.173287
6	-3.791590	 -1.378719	 -0.565427
7	-4.209962	 -0.230314	 0.241071
6	-5.593143	 -0.342169	 0.702541
6	2.116575	 -0.452067	 0.441012
6	2.219016	 -1.810394	 0.093542
6	3.490217	 -2.398357	 -0.125744
6	4.643026	 -1.613645	 0.004077
6	4.532185	 -0.282231	 0.347438
6	3.283788	 0.308924	 0.568473
1	-0.993282	 1.312417	 2.494396
1	-1.613048	 1.721587	 0.896129
1	-0.851548	 2.977527	 1.878076
1	1.341827	 1.873652	 1.733094
1	0.322843	 -0.439666	 1.580419
1	-0.475559	 -0.200276	 -2.471512
1	1.170787	 0.074043	 -1.914806
1	-1.172430	 2.014203	 -1.514123
1	0.154435	 2.225655	 -2.673009
1	-2.462345	 -0.249606	 -1.823439
1	-2.110217	 -1.983697	 -1.791797
1	-4.503698	 -1.504316	 -1.386401
1	-3.777153	 -2.315104	 0.013737
1	-3.597843	 -0.204304	 1.048414
1	-5.805524	 -1.243513	 1.309012
1	-5.842332	 0.537641	 1.307245
1	-6.272032	 -0.353193	 -0.154625
1	1.340663	 -2.403100	 -0.002328
1	3.542587	 -3.438365	 -0.383453
1	5.616138	 -2.068530	 -0.172511
1	5.425966	 0.343845	 0.438054
1	3.229776	 1.358975	 0.798090

--Link1--
%chk=JID_9016.chk
%mem=8GB
%nprocshared=4
# B3LYP/6-311++G(d,p) empiricaldispersion=gd3bj scf=xqc pop=npa geom=check

CID_121742465_JID_9016_Energie_neutraal

0 1

--Link1--
%chk=JID_9016.chk
%mem=8GB
%nprocshared=4
# B3LYP/6-311++G(d,p) empiricaldispersion=gd3bj scf=xqc pop=npa geom=check

CID_121742465_JID_9016_Energie_kation

1 2

--Link1--
%chk=JID_9016.chk
%mem=8GB
%nprocshared=4
# B3LYP/6-311++G(d,p) empiricaldispersion=gd3bj scf=xqc pop=npa geom=check

CID_121742465_JID_9016_Energie_anion

-1 2
