%chk=JID_5560.chk
%mem=8GB
%nprocshared=4
# opt freq B3LYP/6-31G(d) empiricaldispersion=gd3bj scf=xqc

CID_63997878_JID_5560_neutraal

0 1
C          1.08812       -0.03596        0.03070
C          0.60294       -0.62908       -1.28406
C          1.15855       -2.00297       -1.50904
C          2.33726       -2.35073       -2.13454
C          2.54266       -3.75928       -2.15427
C          1.51905       -4.45541       -1.53782
S          0.30213       -3.38309       -0.97062
C          1.41090       -5.96271       -1.35225
C          1.31689       -6.30952        0.13730
N          0.29604       -6.44630       -2.16722
C          0.18077       -7.87322       -2.47625
C         -0.37313       -8.70826       -1.31414
C         -0.81672       -7.96752       -3.64894
C          1.50231       -8.45582       -2.95006
C          2.63593       -8.95558       -3.35650
H          0.76710       -0.64313        0.88386
H          0.68463        0.97304        0.16233
H          2.18122        0.02946        0.05751
H         -0.49338       -0.64779       -1.29648
H          0.91132        0.02532       -2.10869
H          3.02456       -1.62829       -2.55816
H          3.40407       -4.24359       -2.59801
H          2.35633       -6.37421       -1.72610
H          0.31443       -6.12419        0.53937
H          1.56815       -7.35729        0.31746
H          2.02308       -5.71297        0.72726
H         -0.57810       -6.08963       -1.78766
H         -1.27160       -8.25060       -0.88444
H         -0.65074       -9.71442       -1.65269
H          0.35555       -8.85080       -0.51270
H         -0.46940       -7.39833       -4.52060
H         -0.94752       -9.00591       -3.97797
H         -1.80470       -7.58248       -3.36876
H          3.56217       -9.35983       -3.69355

--Link1--
%chk=JID_5560.chk
%mem=8GB
%nprocshared=4
# B3LYP/6-311++G(d,p) empiricaldispersion=gd3bj scf=xqc pop=npa geom=check

CID_63997878_JID_5560_Energie_neutraal

0 1

--Link1--
%chk=JID_5560.chk
%mem=8GB
%nprocshared=4
# B3LYP/6-311++G(d,p) empiricaldispersion=gd3bj scf=xqc pop=npa geom=check

CID_63997878_JID_5560_Energie_kation

1 2

--Link1--
%chk=JID_5560.chk
%mem=8GB
%nprocshared=4
# B3LYP/6-311++G(d,p) empiricaldispersion=gd3bj scf=xqc pop=npa geom=check

CID_63997878_JID_5560_Energie_anion

-1 2
