%chk=JID_9951.chk
%mem=8GB
%nprocshared=4
# opt freq B3LYP/6-31G(d) empiricaldispersion=gd3bj scf=xqc

CID_112594583_JID_9951_neutraal

0 1
C          0.93487       -0.00229       -0.07585
N          0.33766        0.67377        1.10540
C         -1.14938        0.63655        1.04821
C         -1.97841        1.85384        1.35532
C         -1.90675        1.34084       -0.04900
S          0.98885        0.03479        2.58806
O          0.35173       -1.25320        2.77145
O          2.43221        0.14562        2.52251
C          0.45168        1.20092        3.83128
C          0.59815        2.55031        3.48007
C          0.16878        3.54853        4.34147
C         -0.36008        3.22779        5.59399
C         -0.54955        1.86230        5.95677
C         -1.16846        1.50270        7.17941
C         -1.29838        0.17782        7.58988
C         -0.80584       -0.83119        6.78642
C         -0.21598       -0.51381        5.56178
C         -0.09653        0.82165        5.08957
N         -0.86355        4.29377        6.37407
H          0.60821        0.49229       -0.99572
H          0.63770       -1.05455       -0.11984
H          2.02596        0.07086       -0.05132
H         -1.55415       -0.32980        1.34696
H         -2.89851        1.70939        1.90930
H         -1.48645        2.79722        1.55520
H         -1.35491        1.93358       -0.76851
H         -2.78205        0.84797       -0.45529
H          1.02972        2.82963        2.52044
H          0.25830        4.58626        4.03028
H         -1.57026        2.26395        7.84258
H         -1.77287       -0.05739        8.53849
H         -0.87978       -1.86940        7.09988
H          0.16276       -1.35702        4.99197
H         -0.82670        4.11215        7.37129
H         -0.43602        5.18857        6.15473

--Link1--
%chk=JID_9951.chk
%mem=8GB
%nprocshared=4
# B3LYP/6-311++G(d,p) empiricaldispersion=gd3bj scf=xqc pop=npa geom=check

CID_112594583_JID_9951_Energie_neutraal

0 1

--Link1--
%chk=JID_9951.chk
%mem=8GB
%nprocshared=4
# B3LYP/6-311++G(d,p) empiricaldispersion=gd3bj scf=xqc pop=npa geom=check

CID_112594583_JID_9951_Energie_kation

1 2

--Link1--
%chk=JID_9951.chk
%mem=8GB
%nprocshared=4
# B3LYP/6-311++G(d,p) empiricaldispersion=gd3bj scf=xqc pop=npa geom=check

CID_112594583_JID_9951_Energie_anion

-1 2
