%chk=JID_9404.chk
%mem=8GB
%nprocshared=4
# opt freq B3LYP/6-31G(d) empiricaldispersion=gd3bj scf=xqc

CID_61781895_JID_9404_neutraal

0 1
C          1.05649        0.06913        0.04505
N          0.05717       -0.72159       -0.70259
C         -1.38471       -0.43080       -0.40626
C         -1.70342       -0.44782        1.10297
C         -1.59522        0.90286        1.81350
C         -2.32035        2.01005        1.06291
C         -1.82428        2.11827       -0.36997
C         -1.97714        0.79733       -1.11301
S          0.55352       -1.10565       -2.27272
O          0.31350        0.01996       -3.13812
O          1.86881       -1.69879       -2.18718
N         -0.44528       -2.36485       -2.69501
C         -1.76027       -2.12575       -3.30692
C         -1.78724       -2.37660       -4.83516
C         -1.07047       -1.24938       -5.59747
C         -1.24161       -1.36268       -7.10865
C         -2.71292       -1.50438       -7.46918
C         -3.34039       -2.66328       -6.70512
N         -3.19817       -2.48825       -5.26095
H          1.00690       -0.16881        1.11034
H          0.91623        1.13949       -0.10689
H          2.07968       -0.17695       -0.25446
H         -1.92029       -1.30863       -0.78736
H         -2.74380       -0.78411        1.21570
H         -1.09096       -1.19316        1.62412
H         -0.54724        1.18710        1.94723
H         -2.01710        0.81314        2.82147
H         -2.17146        2.96595        1.57744
H         -3.39923        1.81146        1.06505
H         -0.78098        2.44707       -0.38482
H         -2.39754        2.89273       -0.89362
H         -1.60035        0.92291       -2.12833
H         -3.05545        0.61580       -1.22750
H          0.09613       -3.13915       -3.07647
H         -2.44258       -2.83275       -2.81627
H         -2.14460       -1.12904       -3.08040
H         -1.28299       -3.32839       -5.04923
H          0.00128       -1.26832       -5.37234
H         -1.45620       -0.27454       -5.27184
H         -0.81810       -0.47926       -7.59931
H         -0.68637       -2.23383       -7.47664
H         -3.24257       -0.57258       -7.23219
H         -2.81813       -1.66710       -8.54739
H         -4.40707       -2.71661       -6.94887
H         -2.89179       -3.61433       -7.01618
H         -3.63647       -3.27992       -4.78925

--Link1--
%chk=JID_9404.chk
%mem=8GB
%nprocshared=4
# B3LYP/6-311++G(d,p) empiricaldispersion=gd3bj scf=xqc pop=npa geom=check

CID_61781895_JID_9404_Energie_neutraal

0 1

--Link1--
%chk=JID_9404.chk
%mem=8GB
%nprocshared=4
# B3LYP/6-311++G(d,p) empiricaldispersion=gd3bj scf=xqc pop=npa geom=check

CID_61781895_JID_9404_Energie_kation

1 2

--Link1--
%chk=JID_9404.chk
%mem=8GB
%nprocshared=4
# B3LYP/6-311++G(d,p) empiricaldispersion=gd3bj scf=xqc pop=npa geom=check

CID_61781895_JID_9404_Energie_anion

-1 2
