%chk=JID_6111.chk
%mem=8GB
%nprocshared=4
# opt freq B3LYP/6-31G(d) empiricaldispersion=gd3bj scf=xqc

CID_16325_JID_6111_neutraal

0 1
C          1.34400       -0.22500        0.03600
C          0.74041        1.01469        0.24038
C         -0.65245        1.11529        0.27259
C         -1.45476       -0.01638        0.09124
C         -0.83523       -1.25965       -0.10046
C          0.55744       -1.36329       -0.13273
N         -2.85435        0.12171        0.16458
N         -3.40241       -0.32566       -0.86659
C         -4.80082       -0.15671       -0.81113
C         -5.59478       -0.75417        0.18292
C         -6.97912       -0.61515        0.18490
C         -7.58486        0.12952       -0.82012
C         -6.82723        0.72823       -1.82400
C         -5.43659        0.57750       -1.81924
O         -8.94274        0.25058       -0.79146
O         -5.03004       -1.49726        1.18664
H          2.42810       -0.30460        0.01152
H          1.35227        1.90266        0.37706
H         -1.11909        2.08319        0.43750
H         -1.44076       -2.15325       -0.22767
H          1.02657       -2.33160       -0.28740
H         -7.57652       -1.08213        0.96140
H         -7.29554        1.30674       -2.61423
H         -4.84077        1.03444       -2.60531
H         -9.22698        0.79314       -1.54497
H         -4.06479       -1.38106        1.09171

--Link1--
%chk=JID_6111.chk
%mem=8GB
%nprocshared=4
# B3LYP/6-311++G(d,p) empiricaldispersion=gd3bj scf=xqc pop=npa geom=check

CID_16325_JID_6111_Energie_neutraal

0 1

--Link1--
%chk=JID_6111.chk
%mem=8GB
%nprocshared=4
# B3LYP/6-311++G(d,p) empiricaldispersion=gd3bj scf=xqc pop=npa geom=check

CID_16325_JID_6111_Energie_kation

1 2

--Link1--
%chk=JID_6111.chk
%mem=8GB
%nprocshared=4
# B3LYP/6-311++G(d,p) empiricaldispersion=gd3bj scf=xqc pop=npa geom=check

CID_16325_JID_6111_Energie_anion

-1 2
