%chk=JID_10675.chk
%mem=8GB
%nprocshared=4
# opt freq B3LYP/6-31G(d) empiricaldispersion=gd3bj scf=xqc

CID_64966792_JID_10675_neutraal

0 1
C          1.07815        0.00950        0.06166
C         -0.08333        1.01280       -0.06350
C          0.08401        2.10799        1.05422
O          0.46954        1.77333        2.18071
N         -0.43705        3.39486        0.83509
C         -0.26541        4.07534       -0.45743
C         -1.25808        3.65229       -1.52663
C         -1.19289        2.19033       -1.87028
O         -2.08827        1.62570       -2.48993
N         -0.06581        1.52930       -1.44063
C         -0.65665        4.22827        2.04023
C         -1.86700        5.17998        1.91593
C         -1.32677        6.57773        2.21780
N          0.09585        6.46204        1.91036
C          0.49411        5.16161        2.48018
C          1.92840        4.82054        2.08896
C          2.87037        5.93830        2.55036
C          2.38127        7.31081        2.07893
C          0.91062        7.55302        2.43718
C         -1.39633        0.26384        0.24473
H          1.00078       -0.78165       -0.69322
H          1.10325       -0.46876        1.04725
H          2.04239        0.51105       -0.08355
H          0.76554        3.90887       -0.79011
H         -0.36132        5.15604       -0.32441
H         -1.07781        4.22026       -2.44573
H         -2.27780        3.86385       -1.18545
H          0.79279        2.02954       -1.62396
H         -0.87314        3.54663        2.87331
H         -2.64741        4.91096        2.63705
H         -2.32565        5.14727        0.92268
H         -1.49659        6.82085        3.27448
H         -1.81938        7.33795        1.60364
H          0.45020        5.22833        3.57905
H          2.02998        4.70784        1.00474
H          2.23471        3.87339        2.54554
H          3.88256        5.75312        2.17423
H          2.92921        5.93345        3.64588
H          3.00305        8.09580        2.52423
H          2.50747        7.38316        0.99096
H          0.80435        7.64293        3.52593
H          0.59102        8.50453        1.99659
H         -1.59465       -0.51473       -0.50040
H         -1.35751       -0.21430        1.23053
H         -2.25630        0.94320        0.26008

--Link1--
%chk=JID_10675.chk
%mem=8GB
%nprocshared=4
# B3LYP/6-311++G(d,p) empiricaldispersion=gd3bj scf=xqc pop=npa geom=check

CID_64966792_JID_10675_Energie_neutraal

0 1

--Link1--
%chk=JID_10675.chk
%mem=8GB
%nprocshared=4
# B3LYP/6-311++G(d,p) empiricaldispersion=gd3bj scf=xqc pop=npa geom=check

CID_64966792_JID_10675_Energie_kation

1 2

--Link1--
%chk=JID_10675.chk
%mem=8GB
%nprocshared=4
# B3LYP/6-311++G(d,p) empiricaldispersion=gd3bj scf=xqc pop=npa geom=check

CID_64966792_JID_10675_Energie_anion

-1 2
