%chk=JID_9373.chk
%mem=8GB
%nprocshared=4
# opt freq B3LYP/6-31G(d) empiricaldispersion=gd3bj scf=xqc

CID_141374375_JID_9373_neutraal

0 1
C          1.00713        0.06490        0.07574
C          1.12071        0.03420        1.59200
C          1.33755        1.41555        2.21397
C          0.26308        2.45722        1.88812
C         -1.16417        2.07146        2.28922
C         -1.38520        1.85062        3.78954
C         -1.04358        3.04533        4.68700
C         -1.73588        4.36156        4.31833
C         -3.26732        4.32290        4.34528
C         -3.88982        4.05352        5.71958
C         -3.50033        5.04420        6.82297
C         -3.75604        6.51988        6.49834
C         -5.22040        6.88285        6.23258
C         -6.17468        6.67070        7.41547
C         -5.78070        7.37440        8.72117
N         -5.70594        8.82441        8.55258
C         -5.25175        9.49737        9.74626
C         -3.72639        9.53109        9.84628
N         -5.77812       10.83106        9.60070
H          0.10001        0.58147       -0.25091
H          0.96382       -0.95604       -0.31726
H          1.87198        0.56336       -0.37330
H          0.22841       -0.43928        2.01594
H          1.96862       -0.60487        1.86689
H          1.42354        1.30249        3.30103
H          2.30560        1.80534        1.87426
H          0.53970        3.40288        2.36845
H          0.27623        2.66505        0.81146
H         -1.84605        2.85229        1.93247
H         -1.46377        1.16183        1.75592
H         -2.43363        1.57009        3.94688
H         -0.79752        0.98653        4.12184
H         -1.28384        2.78259        5.72404
H          0.04072        3.20887        4.66963
H         -1.37304        5.14539        4.99296
H         -1.41589        4.67371        3.31746
H         -3.64386        5.27731        3.95876
H         -3.63094        3.56389        3.64308
H         -4.98094        4.04720        5.60965
H         -3.62162        3.04254        6.04891
H         -4.03427        4.77162        7.74092
H         -2.43589        4.92103        7.05617
H         -3.36787        7.13086        7.32138
H         -3.16334        6.81046        5.62333
H         -5.26346        7.93251        5.91778
H         -5.59455        6.30936        5.37647
H         -7.17479        7.00912        7.11463
H         -6.26917        5.59642        7.61485
H         -6.54019        7.13720        9.47604
H         -4.83133        6.96601        9.08310
H         -5.09197        9.05549        7.77835
H         -5.67604        9.05609       10.65474
H         -3.26931        9.99421        8.96349
H         -3.40703       10.10439       10.72399
H         -3.31229        8.52226        9.94556
H         -5.28166       11.47879       10.20500
H         -5.63402       11.13320        8.64327

--Link1--
%chk=JID_9373.chk
%mem=8GB
%nprocshared=4
# B3LYP/6-311++G(d,p) empiricaldispersion=gd3bj scf=xqc pop=npa geom=check

CID_141374375_JID_9373_Energie_neutraal

0 1

--Link1--
%chk=JID_9373.chk
%mem=8GB
%nprocshared=4
# B3LYP/6-311++G(d,p) empiricaldispersion=gd3bj scf=xqc pop=npa geom=check

CID_141374375_JID_9373_Energie_kation

1 2

--Link1--
%chk=JID_9373.chk
%mem=8GB
%nprocshared=4
# B3LYP/6-311++G(d,p) empiricaldispersion=gd3bj scf=xqc pop=npa geom=check

CID_141374375_JID_9373_Energie_anion

-1 2
