%chk=JID_10830.chk
%mem=8GB
%nprocshared=4
# opt freq B3LYP/6-31G(d) empiricaldispersion=gd3bj scf=xqc

CID_16281706_JID_10830_neutraal

0 1
C          0.92775        0.02202       -0.06554
O          0.21759        1.13915       -0.59128
C          0.78439        2.35333       -0.31867
C         -0.10244        3.42056       -0.19107
C          0.37222        4.69146        0.13924
C          1.73761        4.90936        0.33193
C          2.62958        3.85531        0.13019
C          2.15408        2.57898       -0.19002
O          2.06603        6.17756        0.72752
C          3.38900        6.41050        1.22772
C          3.65233        5.66989        2.46965
C          3.88333        4.92030        3.51118
C          4.15261        4.04643        4.72536
N          4.93822        2.89155        4.30591
C          5.31119        2.04871        5.44445
C          4.18591        1.21158        5.94393
C          3.78178       -0.08221        5.68377
C          2.63074       -0.30843        6.47628
C          2.40647        0.85795        7.16835
O          3.34933        1.78414        6.85799
H          0.26079       -0.84471       -0.10572
H          1.21154        0.17577        0.98167
H          1.80373       -0.20573       -0.68108
H         -1.16907        3.25798       -0.31888
H         -0.33028        5.51005        0.27218
H          3.70212        3.98415        0.23140
H          2.87525        1.78155       -0.33508
H          4.13204        6.19700        0.45106
H          3.45915        7.48455        1.43183
H          4.69782        4.64595        5.46302
H          3.18814        3.75381        5.15292
H          4.38069        2.34419        3.65287
H          6.11611        1.38175        5.11320
H          5.73588        2.64956        6.25768
H          4.26233       -0.77506        5.00721
H          2.03690       -1.20959        6.53747
H          1.65991        1.17310        7.88425

--Link1--
%chk=JID_10830.chk
%mem=8GB
%nprocshared=4
# B3LYP/6-311++G(d,p) empiricaldispersion=gd3bj scf=xqc pop=npa geom=check

CID_16281706_JID_10830_Energie_neutraal

0 1

--Link1--
%chk=JID_10830.chk
%mem=8GB
%nprocshared=4
# B3LYP/6-311++G(d,p) empiricaldispersion=gd3bj scf=xqc pop=npa geom=check

CID_16281706_JID_10830_Energie_kation

1 2

--Link1--
%chk=JID_10830.chk
%mem=8GB
%nprocshared=4
# B3LYP/6-311++G(d,p) empiricaldispersion=gd3bj scf=xqc pop=npa geom=check

CID_16281706_JID_10830_Energie_anion

-1 2
