%chk=JID_9538.chk
%mem=8GB
%nprocshared=4
# opt freq B3LYP/6-31G(d) empiricaldispersion=gd3bj scf=xqc

CID_12623021_JID_9538_neutraal

0 1
C          0.91804       -0.02569        0.05121
C          0.81561       -1.21631        0.99420
N          0.95523       -0.81432        2.41725
C         -0.33898       -0.48092        3.03971
C         -0.91177       -1.62885        3.87637
O         -1.13840       -2.78574        3.07642
C          2.19584       -0.76236        3.01876
S          3.63929       -1.25620        2.28692
N          2.41195       -0.32167        4.27285
C          1.68945        0.31915        5.38023
C          2.17074       -0.35666        6.67816
C          1.97150       -1.74528        6.82231
C          2.38868       -2.43039        7.96573
C          3.01835       -1.74193        8.99535
C          3.23555       -0.37302        8.87518
C          2.82121        0.31194        7.72682
C          1.83944        1.87605        5.33278
C          1.77036        2.48883        3.92609
C          0.76622        2.55232        6.20027
H          0.13689        0.71161        0.26293
H          0.80420       -0.35357       -0.98664
H          1.88360        0.48025        0.14562
H         -0.15395       -1.70811        0.85399
H          1.56129       -1.96869        0.72378
H         -0.25219        0.43058        3.62400
H         -1.05128       -0.23901        2.24092
H         -0.24702       -1.91662        4.69109
H         -1.87046       -1.32898        4.31021
H         -0.25975       -3.06462        2.75878
H          3.40370       -0.38978        4.47928
H          0.63036        0.07975        5.31936
H          1.50218       -2.31615        6.02452
H          2.22689       -3.50233        8.04520
H          3.34579       -2.27148        9.88586
H          3.73379        0.16707        9.67672
H          3.02539        1.37757        7.68741
H          2.82797        2.15587        5.71647
H          0.81040        2.30008        3.44017
H          1.89740        3.57644        3.98054
H          2.57045        2.11218        3.28240
H          0.78430        2.19501        7.23334
H          0.91768        3.63696        6.22702
H         -0.23637        2.36393        5.80041

--Link1--
%chk=JID_9538.chk
%mem=8GB
%nprocshared=4
# B3LYP/6-311++G(d,p) empiricaldispersion=gd3bj scf=xqc pop=npa geom=check

CID_12623021_JID_9538_Energie_neutraal

0 1

--Link1--
%chk=JID_9538.chk
%mem=8GB
%nprocshared=4
# B3LYP/6-311++G(d,p) empiricaldispersion=gd3bj scf=xqc pop=npa geom=check

CID_12623021_JID_9538_Energie_kation

1 2

--Link1--
%chk=JID_9538.chk
%mem=8GB
%nprocshared=4
# B3LYP/6-311++G(d,p) empiricaldispersion=gd3bj scf=xqc pop=npa geom=check

CID_12623021_JID_9538_Energie_anion

-1 2
