%chk=JID_7799.chk
%mem=8GB
%nprocshared=4
# opt freq B3LYP/6-31G(d) empiricaldispersion=gd3bj scf=xqc

CID_61884564_JID_7799_neutraal

0 1
C          0.92703       -0.05405       -0.04188
C          1.52796       -1.25560       -0.75577
C          1.89545       -2.40185        0.18675
N          0.79193       -2.86964        1.00474
C         -0.27304       -3.64574        0.66058
O         -1.13743       -3.86712        1.51081
C         -0.37621       -4.21088       -0.73963
C         -1.72713       -3.86374       -1.37007
N         -1.82039       -2.42609       -1.61697
C         -3.01189       -2.00002       -2.37315
C         -4.34399       -2.54260       -1.87169
C         -2.95236       -0.46069       -2.53063
O         -2.45300        0.04260       -3.54546
N         -3.34644        0.41373       -1.56440
C         -4.10877        0.27586       -0.32496
C         -3.25503       -0.20744        0.84299
C         -4.73187        1.62857        0.03144
H         -0.01896       -0.31056        0.44322
H          0.72859        0.74963       -0.75808
H          1.61206        0.33113        0.71996
H          0.82568       -1.59828       -1.52058
H          2.43295       -0.93698       -1.28643
H          2.29212       -3.24705       -0.38472
H          2.68098       -2.07651        0.87781
H          0.73904       -2.53107        1.95832
H          0.43759       -3.88155       -1.38831
H         -0.28248       -5.29984       -0.65083
H         -1.81394       -4.40732       -2.31796
H         -2.53909       -4.19753       -0.71447
H         -1.77691       -1.91808       -0.73628
H         -2.89613       -2.38023       -3.39817
H         -4.41984       -2.51305       -0.78116
H         -5.18370       -1.97958       -2.29223
H         -4.46869       -3.59015       -2.16855
H         -3.13708        1.36161       -1.85801
H         -4.92744       -0.42476       -0.49782
H         -2.35077        0.40004        0.95312
H         -3.81524       -0.15661        1.78315
H         -2.95035       -1.24729        0.71865
H         -5.35924        1.99490       -0.78857
H         -5.35814        1.54915        0.92616
H         -3.96032        2.38387        0.21999

--Link1--
%chk=JID_7799.chk
%mem=8GB
%nprocshared=4
# B3LYP/6-311++G(d,p) empiricaldispersion=gd3bj scf=xqc pop=npa geom=check

CID_61884564_JID_7799_Energie_neutraal

0 1

--Link1--
%chk=JID_7799.chk
%mem=8GB
%nprocshared=4
# B3LYP/6-311++G(d,p) empiricaldispersion=gd3bj scf=xqc pop=npa geom=check

CID_61884564_JID_7799_Energie_kation

1 2

--Link1--
%chk=JID_7799.chk
%mem=8GB
%nprocshared=4
# B3LYP/6-311++G(d,p) empiricaldispersion=gd3bj scf=xqc pop=npa geom=check

CID_61884564_JID_7799_Energie_anion

-1 2
