%chk=JID_10973.chk
%mem=8GB
%nprocshared=4
# opt freq B3LYP/6-31G(d) empiricaldispersion=gd3bj scf=xqc

CID_17962483_JID_10973_neutraal

0 1
C          0.92550        0.06575        0.01123
C          1.05196       -0.60788       -1.34649
C          1.22075       -2.12632       -1.25895
C          0.09329       -2.87165       -0.53853
C         -1.30407       -2.68406       -1.13782
C         -1.46815       -3.16230       -2.58468
C         -1.12422       -4.63477       -2.83575
C         -1.86061       -5.64277       -1.94759
C         -3.38841       -5.61588       -2.05586
C         -3.95407       -5.98286       -3.43197
C         -3.54740       -7.36131       -3.96568
C         -3.84201       -8.54117       -3.03314
C         -5.31646       -8.72925       -2.66296
C         -6.25854       -9.01765       -3.83892
C         -5.88353      -10.22336       -4.71059
N         -5.85481      -11.45977       -3.93047
C         -5.49886      -12.64202       -4.74625
C         -3.99550      -12.71079       -5.02486
C         -5.94628      -13.92264       -3.99087
N         -7.37272      -13.86494       -3.65555
H         -0.00374       -0.21524        0.51528
H          0.91858        1.15386       -0.10962
H          1.76656       -0.19692        0.66059
H          0.18253       -0.35498       -1.96301
H          1.92673       -0.19323       -1.86204
H          1.33728       -2.52628       -2.27296
H          2.16209       -2.34542       -0.73901
H          0.34388       -3.93851       -0.51458
H          0.06486       -2.55751        0.51171
H         -2.02614       -3.20683       -0.49948
H         -1.58661       -1.62602       -1.08711
H         -2.50343       -2.97612       -2.89495
H         -0.84859       -2.54362       -3.24494
H         -1.32012       -4.86368       -3.89000
H         -0.04559       -4.77932       -2.70002
H         -1.49086       -6.64726       -2.18319
H         -1.58632       -5.47376       -0.89985
H         -3.79937       -6.29849       -1.30271
H         -3.76104       -4.62270       -1.77977
H         -5.04811       -5.92485       -3.38216
H         -3.65262       -5.22380       -4.16371
H         -4.04570       -7.52234       -4.92899
H         -2.47367       -7.35732       -4.18881
H         -3.45958       -9.45719       -3.49835
H         -3.26561       -8.42754       -2.10766
H         -5.38729       -9.54602       -1.93443
H         -5.68128       -7.83978       -2.13611
H         -7.26992       -9.16740       -3.43883
H         -6.31861       -8.13019       -4.48037
H         -6.63521      -10.31226       -5.50414
H         -4.92162      -10.03576       -5.19748
H         -5.19169      -11.37472       -3.16152
H         -6.04210      -12.60987       -5.69978
H         -3.41579      -12.72011       -4.09493
H         -3.74911      -13.62203       -5.58063
H         -3.65679      -11.86105       -5.62545
H         -5.75598      -14.81287       -4.59947
H         -5.36987      -14.02406       -3.06296
H         -7.54934      -14.42715       -2.82608
H         -7.56679      -12.89254       -3.39345

--Link1--
%chk=JID_10973.chk
%mem=8GB
%nprocshared=4
# B3LYP/6-311++G(d,p) empiricaldispersion=gd3bj scf=xqc pop=npa geom=check

CID_17962483_JID_10973_Energie_neutraal

0 1

--Link1--
%chk=JID_10973.chk
%mem=8GB
%nprocshared=4
# B3LYP/6-311++G(d,p) empiricaldispersion=gd3bj scf=xqc pop=npa geom=check

CID_17962483_JID_10973_Energie_kation

1 2

--Link1--
%chk=JID_10973.chk
%mem=8GB
%nprocshared=4
# B3LYP/6-311++G(d,p) empiricaldispersion=gd3bj scf=xqc pop=npa geom=check

CID_17962483_JID_10973_Energie_anion

-1 2
