%chk=JID_2948.chk
%mem=8GB
%nprocshared=4
# opt freq B3LYP/6-31G(d) empiricaldispersion=gd3bj scf=xqc

CID_148652247_JID_2948_neutraal

0 1
C          0.96150       -0.04134       -0.08251
C          0.11333        1.23190       -0.19554
C         -1.02806        1.21865        0.79509
O         -0.53803        1.22788        2.13429
C          0.48359        2.04705        2.50963
O          0.72015        2.17878        3.70648
N          1.21937        2.68318        1.50206
C          0.89343        2.52560        0.07249
C          2.10465        2.61388       -0.86964
C          2.16035        3.75228        1.90697
C          1.46944        4.90606        2.64064
C          3.35620        3.21104        2.69387
H          0.33024       -0.93176       -0.17631
H          1.49114       -0.10537        0.87314
H          1.70697       -0.09001       -0.88256
H         -0.30384        1.26434       -1.21021
H         -1.69626        2.07785        0.66378
H         -1.63673        0.31637        0.67201
H          0.23471        3.37257       -0.16533
H          1.83787        2.29283       -1.88272
H          2.46934        3.64124       -0.96393
H          2.93604        1.99519       -0.51593
H          2.57625        4.19854        1.00118
H          1.10390        4.61620        3.62978
H          2.16592        5.73974        2.78189
H          0.61524        5.27464        2.06250
H          3.83306        2.38664        2.15283
H          4.10530        3.99698        2.83901
H          3.07541        2.84183        3.68410

--Link1--
%chk=JID_2948.chk
%mem=8GB
%nprocshared=4
# B3LYP/6-311++G(d,p) empiricaldispersion=gd3bj scf=xqc pop=npa geom=check

CID_148652247_JID_2948_Energie_neutraal

0 1

--Link1--
%chk=JID_2948.chk
%mem=8GB
%nprocshared=4
# B3LYP/6-311++G(d,p) empiricaldispersion=gd3bj scf=xqc pop=npa geom=check

CID_148652247_JID_2948_Energie_kation

1 2

--Link1--
%chk=JID_2948.chk
%mem=8GB
%nprocshared=4
# B3LYP/6-311++G(d,p) empiricaldispersion=gd3bj scf=xqc pop=npa geom=check

CID_148652247_JID_2948_Energie_anion

-1 2
