%chk=JID_4730.chk
%mem=8GB
%nprocshared=4
# opt freq B3LYP/6-31G(d) empiricaldispersion=gd3bj scf=xqc

CID_130492278_JID_4730_neutraal

0 1
C          0.90818        0.03184        0.02357
C          0.46106       -0.75356       -1.20703
C          1.29069       -0.41696       -2.46179
N          2.67879       -0.91043       -2.41319
C          2.70678       -2.38089       -2.45241
C          2.11613       -3.05554       -1.19812
S          0.38175       -2.55600       -0.86247
C          2.99743       -2.87569        0.03621
C          3.55860       -0.28752       -3.44110
C          3.07012       -0.49807       -4.86190
C          2.56052        0.41255       -5.70419
C          3.92068        1.18608       -3.07265
O          4.40861        2.02615       -3.81729
O          3.74820        1.50625       -1.76911
H          0.30966       -0.22763        0.90363
H          0.77412        1.10564       -0.15158
H          1.96164       -0.11729        0.26619
H         -0.57507       -0.45757       -1.41189
H          0.77122       -0.81235       -3.34557
H          1.28211        0.67478       -2.57251
H          3.74542       -2.72475       -2.54578
H          2.18229       -2.75572       -3.34178
H          2.06899       -4.13293       -1.39844
H          2.55453       -3.35124        0.91812
H          3.97157       -3.35025       -0.12987
H          3.19507       -1.82827        0.27072
H          4.53868       -0.78238       -3.37237
H          3.15875       -1.51891       -5.22905
H          2.25330        0.12816       -6.70649
H          2.43930        1.45682       -5.43265
H          4.06965        2.42841       -1.71088

--Link1--
%chk=JID_4730.chk
%mem=8GB
%nprocshared=4
# B3LYP/6-311++G(d,p) empiricaldispersion=gd3bj scf=xqc pop=npa geom=check

CID_130492278_JID_4730_Energie_neutraal

0 1

--Link1--
%chk=JID_4730.chk
%mem=8GB
%nprocshared=4
# B3LYP/6-311++G(d,p) empiricaldispersion=gd3bj scf=xqc pop=npa geom=check

CID_130492278_JID_4730_Energie_kation

1 2

--Link1--
%chk=JID_4730.chk
%mem=8GB
%nprocshared=4
# B3LYP/6-311++G(d,p) empiricaldispersion=gd3bj scf=xqc pop=npa geom=check

CID_130492278_JID_4730_Energie_anion

-1 2
