%chk=JID_7.chk
%mem=8GB
%nprocshared=4
# opt freq B3LYP/6-31G(d) empiricaldispersion=gd3bj scf=xqc

CID_20678039_JID_7_neutraal

0 1
C          0.92474       -0.05297       -0.03911
C          0.59188       -0.05412       -1.53983
C          1.32134       -1.22330       -2.19837
C         -0.93115       -0.09246       -1.78993
O         -1.58038       -1.15745       -1.07424
C         -2.37228       -0.21226       -0.35266
O         -1.61173        0.84922       -0.93461
C         -1.48058        0.04715       -3.22627
C         -0.80789        1.18840       -3.98531
C         -1.43073       -1.25456       -4.02457
H          0.56447       -0.96167        0.45482
H          0.47750        0.80732        0.46915
H          2.00747        0.00644        0.11755
H          1.00069        0.87812       -1.94814
H          0.83374       -2.17920       -1.98151
H          1.36683       -1.09643       -3.28247
H          2.35938       -1.28623       -1.85330
H         -2.24678       -0.28550        0.72907
H         -3.42259       -0.20802       -0.65140
H         -2.54691        0.30634       -3.15429
H          0.24376        0.97145       -4.19744
H         -1.30860        1.36099       -4.94408
H         -0.85067        2.11993       -3.41125
H         -1.87422       -2.08459       -3.46575
H         -1.99715       -1.14592       -4.95653
H         -0.41594       -1.54180       -4.30368

--Link1--
%chk=JID_7.chk
%mem=8GB
%nprocshared=4
# B3LYP/6-311++G(d,p) empiricaldispersion=gd3bj scf=xqc pop=npa geom=check

CID_20678039_JID_7_Energie_neutraal

0 1

--Link1--
%chk=JID_7.chk
%mem=8GB
%nprocshared=4
# B3LYP/6-311++G(d,p) empiricaldispersion=gd3bj scf=xqc pop=npa geom=check

CID_20678039_JID_7_Energie_kation

1 2

--Link1--
%chk=JID_7.chk
%mem=8GB
%nprocshared=4
# B3LYP/6-311++G(d,p) empiricaldispersion=gd3bj scf=xqc pop=npa geom=check

CID_20678039_JID_7_Energie_anion

-1 2
