%chk=JID_10994.chk
%mem=8GB
%nprocshared=4
# opt freq B3LYP/6-31G(d) empiricaldispersion=gd3bj scf=xqc

CID_13813063_JID_10994_neutraal

0 1
C          1.08161       -0.05572        0.01534
O          0.32555       -0.99298       -0.74131
C          0.74923       -1.22833       -2.01987
C          1.97384       -0.83401       -2.56087
C          2.27745       -1.12323       -3.89625
C          1.35977       -1.80976       -4.69339
C          0.14452       -2.22468       -4.14943
C         -0.15456       -1.93722       -2.81538
C          1.65431       -2.06415       -6.06875
C          1.88426       -2.24493       -7.23420
C          2.13897       -2.42518       -8.64204
O          2.78561       -3.38499       -9.03768
C          1.62095       -1.45644       -9.57686
C          1.17962       -0.64009      -10.33988
C          0.64535        0.33592      -11.23839
C         -0.01541       -0.07030      -12.39993
C         -0.54147        0.88308      -13.27406
C         -0.40733        2.24166      -12.98811
C          0.25249        2.64914      -11.82883
C          0.77887        1.69708      -10.95339
H          0.55290        0.11672        0.95779
H          1.16008        0.90596       -0.50305
H          2.07124       -0.45624        0.25784
H          2.71441       -0.30323       -1.97203
H          3.23252       -0.80387       -4.30692
H         -0.57923       -2.76479       -4.75456
H         -1.10521       -2.25708       -2.39541
H         -0.12451       -1.12711      -12.63170
H         -1.05535        0.56576      -14.17785
H         -0.81690        2.98321      -13.66951
H          0.35709        3.70807      -11.60673
H          1.29100        2.02512      -10.05221

--Link1--
%chk=JID_10994.chk
%mem=8GB
%nprocshared=4
# B3LYP/6-311++G(d,p) empiricaldispersion=gd3bj scf=xqc pop=npa geom=check

CID_13813063_JID_10994_Energie_neutraal

0 1

--Link1--
%chk=JID_10994.chk
%mem=8GB
%nprocshared=4
# B3LYP/6-311++G(d,p) empiricaldispersion=gd3bj scf=xqc pop=npa geom=check

CID_13813063_JID_10994_Energie_kation

1 2

--Link1--
%chk=JID_10994.chk
%mem=8GB
%nprocshared=4
# B3LYP/6-311++G(d,p) empiricaldispersion=gd3bj scf=xqc pop=npa geom=check

CID_13813063_JID_10994_Energie_anion

-1 2
