%chk=JID_6122.chk
%mem=8GB
%nprocshared=4
# opt freq B3LYP/6-31G(d) empiricaldispersion=gd3bj scf=xqc

CID_82547127_JID_6122_neutraal

0 1
C         -0.78000        1.93900       -0.04000
N         -0.10046        0.69634        0.23636
C         -0.42957       -0.55478       -0.22901
C          0.53643       -1.41603        0.26451
C          1.34719       -0.58357        1.07002
N          0.97989        0.69943        1.04343
C          0.59156       -2.84749        0.04317
O         -0.42162       -3.52004       -0.15349
N          1.80213       -3.49938        0.05483
C          3.11566       -2.95915       -0.24736
C          4.11093       -3.19784        0.88731
C          4.36046       -4.67104        1.23364
C          4.89152       -5.54285        0.08994
C          6.20937       -5.07459       -0.51874
O          7.24548       -5.06394        0.45089
N         -1.50328       -0.79751       -1.01947
H         -0.97592        2.00326       -1.11316
H         -1.71527        1.94915        0.52481
H         -0.14706        2.77636        0.26557
H          2.19085       -0.86112        1.68668
H          1.67207       -4.48918       -0.11681
H          3.45346       -3.44755       -1.16739
H          3.05388       -1.89302       -0.47828
H          5.06132       -2.71534        0.63239
H          3.74792       -2.69851        1.79384
H          5.06290       -4.71318        2.07520
H          3.42899       -5.11738        1.60341
H          5.03522       -6.55419        0.49108
H          4.13683       -5.62354       -0.70005
H          6.50939       -5.76481       -1.31373
H          6.12680       -4.07854       -0.96378
H          7.06673       -4.34234        1.07671
H         -1.78434       -1.77657       -1.12906
H         -2.30562       -0.17417       -1.03066

--Link1--
%chk=JID_6122.chk
%mem=8GB
%nprocshared=4
# B3LYP/6-311++G(d,p) empiricaldispersion=gd3bj scf=xqc pop=npa geom=check

CID_82547127_JID_6122_Energie_neutraal

0 1

--Link1--
%chk=JID_6122.chk
%mem=8GB
%nprocshared=4
# B3LYP/6-311++G(d,p) empiricaldispersion=gd3bj scf=xqc pop=npa geom=check

CID_82547127_JID_6122_Energie_kation

1 2

--Link1--
%chk=JID_6122.chk
%mem=8GB
%nprocshared=4
# B3LYP/6-311++G(d,p) empiricaldispersion=gd3bj scf=xqc pop=npa geom=check

CID_82547127_JID_6122_Energie_anion

-1 2
