%chk=JID_10892.chk
%mem=8GB
%nprocshared=4
# opt freq B3LYP/6-31G(d) empiricaldispersion=gd3bj scf=xqc

CID_2868031_JID_10892_neutraal

0 1
C         -2.63000       -0.57000       -0.10200
C         -1.25357       -0.00050       -0.16271
N         -0.95550        1.05723       -0.85583
N          0.37944        1.26693       -0.66336
C          1.01223        0.33233        0.13906
O          2.19881        0.28312        0.40472
C         -0.08317       -0.61831        0.57326
C          0.20000       -2.06017        0.14349
C          0.75266       -2.93790        1.27249
C          2.00430       -2.36470        1.90301
O          1.94072       -1.63380        2.89177
N          3.20362       -2.59827        1.25754
N          3.54230       -3.89329        0.97282
C          3.56518       -4.28340       -0.26777
C          3.28186       -3.55425       -1.51424
C          3.51852       -2.20197       -1.70226
N          3.24084       -1.55008       -2.86082
C          2.71739       -2.27997       -3.86934
C          2.46569       -3.63856       -3.78149
C          2.76048       -4.28636       -2.58482
H         -2.72087       -1.38001       -0.82992
H         -2.82567       -0.95988        0.90005
H         -3.36732        0.20247       -0.33626
H          0.86302        2.02783       -1.12599
H         -0.26938       -0.51490        1.64684
H         -0.71549       -2.54099       -0.21968
H          0.89533       -2.06765       -0.70056
H          0.00091       -3.04912        2.06324
H          0.94596       -3.94715        0.89541
H          3.92334       -2.14591        1.82252
H          3.80886       -5.35150       -0.41076
H          3.94827       -1.57259       -0.92916
H          2.50116       -1.72640       -4.77902
H          2.04825       -4.17931       -4.62394
H          2.56594       -5.35182       -2.49237

--Link1--
%chk=JID_10892.chk
%mem=8GB
%nprocshared=4
# B3LYP/6-311++G(d,p) empiricaldispersion=gd3bj scf=xqc pop=npa geom=check

CID_2868031_JID_10892_Energie_neutraal

0 1

--Link1--
%chk=JID_10892.chk
%mem=8GB
%nprocshared=4
# B3LYP/6-311++G(d,p) empiricaldispersion=gd3bj scf=xqc pop=npa geom=check

CID_2868031_JID_10892_Energie_kation

1 2

--Link1--
%chk=JID_10892.chk
%mem=8GB
%nprocshared=4
# B3LYP/6-311++G(d,p) empiricaldispersion=gd3bj scf=xqc pop=npa geom=check

CID_2868031_JID_10892_Energie_anion

-1 2
