%chk=JID_10997.chk
%mem=8GB
%nprocshared=4
# opt freq B3LYP/6-31G(d) empiricaldispersion=gd3bj scf=xqc

CID_43323034_JID_10997_neutraal

0 1
C          0.92295        0.06287        0.01048
O          0.42261       -0.79720        1.03626
C          0.85932       -2.08340        0.85406
C         -0.02356       -3.10075        0.46629
C          0.43102       -4.42694        0.40492
C          1.75766       -4.72299        0.73407
C          2.63246       -3.71451        1.14582
C          2.17929       -2.39520        1.20489
S          2.31744       -6.41153        0.68825
O          2.67661       -6.74667        2.05435
O          1.31131       -7.18977       -0.01378
C          3.80622       -6.43665       -0.28475
C          3.55853       -5.85290       -1.61483
C          2.98695       -6.30767       -2.77941
C          3.10660       -5.22130       -3.66332
N          3.70822       -4.17611       -3.09117
O          4.00068       -4.57927       -1.80163
C         -1.44923       -2.86600        0.15215
O         -2.34959       -3.66261        0.34803
O         -1.67362       -1.70740       -0.48910
H          0.37932        1.01017        0.07364
H          0.75925       -0.35812       -0.98802
H          1.98669        0.27169        0.16417
H         -0.25919       -5.22067        0.12085
H          3.65162       -3.93900        1.45003
H          2.84693       -1.61294        1.55859
H          4.58320       -5.89676        0.26376
H          4.11518       -7.48334       -0.36934
H          2.54439       -7.27655       -2.96153
H          2.78598       -5.14230       -4.69291
H         -2.64250       -1.70263       -0.63246

--Link1--
%chk=JID_10997.chk
%mem=8GB
%nprocshared=4
# B3LYP/6-311++G(d,p) empiricaldispersion=gd3bj scf=xqc pop=npa geom=check

CID_43323034_JID_10997_Energie_neutraal

0 1

--Link1--
%chk=JID_10997.chk
%mem=8GB
%nprocshared=4
# B3LYP/6-311++G(d,p) empiricaldispersion=gd3bj scf=xqc pop=npa geom=check

CID_43323034_JID_10997_Energie_kation

1 2

--Link1--
%chk=JID_10997.chk
%mem=8GB
%nprocshared=4
# B3LYP/6-311++G(d,p) empiricaldispersion=gd3bj scf=xqc pop=npa geom=check

CID_43323034_JID_10997_Energie_anion

-1 2
