%chk=JID_7454.chk
%mem=8GB
%nprocshared=4
# opt freq B3LYP/6-31G(d) empiricaldispersion=gd3bj scf=xqc

CID_3301599_JID_7454_neutraal

0 1
C          2.49200        0.00400       -0.01400
C          0.99413       -0.04526       -0.02506
C          0.31846       -1.17281        0.45270
C         -1.07472       -1.24416        0.38610
C         -1.81830       -0.19734       -0.17598
C         -1.13688        0.93554       -0.64265
C          0.25606        1.00737       -0.57560
C         -3.32485       -0.29682       -0.29981
N         -3.84575       -0.91228       -1.53355
C         -3.50822       -0.15306       -2.74149
C         -4.23005       -0.71967       -3.96428
C         -3.91848       -2.20603       -4.13337
C         -4.22560       -2.96760       -2.84431
C         -3.50070       -2.33150       -1.65789
C         -4.65786       -2.78663       -5.30978
O         -4.14199       -3.22753       -6.32458
O         -5.99592       -2.78086       -5.17676
H          2.89647       -0.57092        0.82572
H          2.88703       -0.40855       -0.94746
H          2.84821        1.03359        0.09706
H          0.87346       -2.00805        0.87376
H         -1.57769       -2.13247        0.76135
H         -1.68910        1.76492       -1.07879
H          0.76188        1.88849       -0.96383
H         -3.71668       -0.84459        0.56804
H         -3.75564        0.70829       -0.19507
H         -2.42829       -0.16624       -2.93280
H         -3.81007        0.89459       -2.62356
H         -3.92542       -0.16731       -4.86159
H         -5.31133       -0.56299       -3.85617
H         -2.84703       -2.31526       -4.35157
H         -5.30595       -2.97690       -2.64917
H         -3.92013       -4.01613       -2.94540
H         -3.79603       -2.87114       -0.75003
H         -2.42071       -2.47064       -1.78819
H         -6.31985       -3.17613       -6.01279

--Link1--
%chk=JID_7454.chk
%mem=8GB
%nprocshared=4
# B3LYP/6-311++G(d,p) empiricaldispersion=gd3bj scf=xqc pop=npa geom=check

CID_3301599_JID_7454_Energie_neutraal

0 1

--Link1--
%chk=JID_7454.chk
%mem=8GB
%nprocshared=4
# B3LYP/6-311++G(d,p) empiricaldispersion=gd3bj scf=xqc pop=npa geom=check

CID_3301599_JID_7454_Energie_kation

1 2

--Link1--
%chk=JID_7454.chk
%mem=8GB
%nprocshared=4
# B3LYP/6-311++G(d,p) empiricaldispersion=gd3bj scf=xqc pop=npa geom=check

CID_3301599_JID_7454_Energie_anion

-1 2
