%chk=JID_9409.chk
%mem=8GB
%nprocshared=4
# opt freq B3LYP/6-31G(d) empiricaldispersion=gd3bj scf=xqc

CID_106597922_JID_9409_neutraal

0 1
C         -0.02900        0.88300        0.00000
C         -0.65217       -0.46113       -0.25675
C          0.58069       -0.35540        0.60293
C          1.89190       -0.88296        0.09933
C          3.09053       -0.05473        0.57207
C          3.30609       -0.03244        2.08524
N          3.65550       -1.37774        2.56543
S          4.36821       -1.50394        4.09430
O          3.87188       -0.39759        4.88447
O          4.18256       -2.86629        4.53073
C          6.06826       -1.23457        3.76188
C          6.86882       -2.19742        3.16987
N          8.19876       -1.99601        2.93364
C          8.74139       -0.82797        3.33515
C          8.01854        0.17603        3.95175
C          6.66012       -0.03186        4.16979
C          6.37195       -3.50214        2.65186
S          6.95176       -4.98890        3.15280
N          5.42855       -3.45830        1.65445
H         -0.55191        1.56572        0.66071
H          0.47680        1.36918       -0.82664
H         -1.59485       -0.68412        0.23121
H         -0.56446       -0.87827       -1.25368
H          0.44393       -0.52542        1.66559
H          2.00032       -1.92818        0.40951
H          1.89553       -0.88848       -0.99814
H          3.99376       -0.44614        0.08696
H          2.96937        0.97913        0.22588
H          4.12734        0.66006        2.29980
H          2.41218        0.32596        2.60396
H          2.94802       -2.10943        2.46295
H          9.80566       -0.72004        3.14285
H          8.50259        1.09602        4.26288
H          6.07563        0.74099        4.66541
H          5.03149       -2.59581        1.29832
H          5.09801       -4.33435        1.26600

--Link1--
%chk=JID_9409.chk
%mem=8GB
%nprocshared=4
# B3LYP/6-311++G(d,p) empiricaldispersion=gd3bj scf=xqc pop=npa geom=check

CID_106597922_JID_9409_Energie_neutraal

0 1

--Link1--
%chk=JID_9409.chk
%mem=8GB
%nprocshared=4
# B3LYP/6-311++G(d,p) empiricaldispersion=gd3bj scf=xqc pop=npa geom=check

CID_106597922_JID_9409_Energie_kation

1 2

--Link1--
%chk=JID_9409.chk
%mem=8GB
%nprocshared=4
# B3LYP/6-311++G(d,p) empiricaldispersion=gd3bj scf=xqc pop=npa geom=check

CID_106597922_JID_9409_Energie_anion

-1 2
