%chk=JID_8086.chk
%mem=8GB
%nprocshared=4
# opt freq B3LYP/6-31G(d) empiricaldispersion=gd3bj scf=xqc

CID_83543274_JID_8086_neutraal

0 1
C          2.91400       -0.01100        0.00300
C          1.41492        0.01574        0.02848
C          0.69222       -1.18188       -0.03566
C         -0.71333       -1.18807        0.00475
C         -1.40929        0.03052        0.12926
C         -0.67815        1.22767        0.18558
C          0.71783        1.21994        0.14204
C         -2.91188        0.09088        0.18297
C         -1.39674       -2.48999       -0.07238
C         -2.04615       -2.86045       -1.18740
C         -2.70319       -4.19417       -1.19985
O         -3.32197       -4.57919       -2.18602
C         -2.59452       -5.04947        0.00895
C         -1.90779       -4.56211        1.05209
N         -1.31855       -3.31596        1.02056
C         -1.78645       -5.40590        2.27051
O         -2.24867       -6.51774        2.44681
O         -1.06469       -4.77978        3.22361
H          3.29743       -0.44072        0.93377
H          3.26942       -0.60881       -0.84268
H          3.33073        0.99565       -0.10648
H          1.23056       -2.12469       -0.12469
H         -1.19404        2.18222        0.27059
H          1.25444        2.16468        0.19700
H         -3.33440       -0.10716       -0.80691
H         -3.30573       -0.63437        0.90225
H         -3.25901        1.07859        0.50542
H         -2.12478       -2.25495       -2.07990
H         -3.07316       -6.01925       -0.01304
H         -0.83296       -3.00812        1.86099
H         -1.05377       -5.42501        3.96190

--Link1--
%chk=JID_8086.chk
%mem=8GB
%nprocshared=4
# B3LYP/6-311++G(d,p) empiricaldispersion=gd3bj scf=xqc pop=npa geom=check

CID_83543274_JID_8086_Energie_neutraal

0 1

--Link1--
%chk=JID_8086.chk
%mem=8GB
%nprocshared=4
# B3LYP/6-311++G(d,p) empiricaldispersion=gd3bj scf=xqc pop=npa geom=check

CID_83543274_JID_8086_Energie_kation

1 2

--Link1--
%chk=JID_8086.chk
%mem=8GB
%nprocshared=4
# B3LYP/6-311++G(d,p) empiricaldispersion=gd3bj scf=xqc pop=npa geom=check

CID_83543274_JID_8086_Energie_anion

-1 2
