%chk=JID_8947.chk
%mem=8GB
%nprocshared=4
# opt freq B3LYP/6-31G(d) empiricaldispersion=gd3bj scf=xqc

CID_149691342_JID_8947_neutraal

0 1
C          1.05361       -0.06615        0.05245
C          0.46498       -0.89713        1.19383
C          0.60469       -0.12067        2.50868
C         -1.01501       -1.25340        0.96227
C         -1.35709       -2.11292       -0.27420
C         -1.06597       -3.66506       -0.25971
C         -1.59772       -4.29096        1.08084
C         -3.08656       -4.05603        1.39200
C         -3.39611       -4.98875        2.56440
C         -2.28558       -6.03597        2.57779
C         -1.50435       -5.80964        1.28685
C         -1.73569       -4.29294       -1.54548
C         -1.51205       -3.61711       -2.90971
O         -1.65908       -5.72044       -1.70279
C         -0.36537       -6.24682       -1.96687
C          0.48435       -3.76776       -0.36913
O          1.00528       -3.29196       -1.41828
O          1.08564       -4.30586        0.60400
H          0.47638        0.85071       -0.10871
H          1.07294       -0.62292       -0.88754
H          2.08620        0.22275        0.27707
H          1.05442       -1.81057        1.30227
H          0.04466        0.82024        2.47743
H          0.22980       -0.71155        3.35119
H          1.65466        0.11664        2.71094
H         -1.42183       -1.71252        1.86811
H         -1.56900       -0.30990        0.85311
H         -2.43839       -1.99104       -0.43240
H         -0.89544       -1.64067       -1.14778
H         -1.02257       -3.84336        1.90500
H         -3.31482       -3.01817        1.64895
H         -3.72156       -4.33343        0.54437
H         -4.38196       -5.44976        2.44251
H         -3.40612       -4.43731        3.51111
H         -2.67992       -7.05465        2.64394
H         -1.63452       -5.87518        3.44523
H         -2.00483       -6.36903        0.49361
H         -0.47933       -6.17717        1.37620
H         -2.81139       -4.14237       -1.39013
H         -0.47687       -3.66402       -3.25202
H         -2.10185       -4.13429       -3.67635
H         -1.82923       -2.57108       -2.90833
H          0.14213       -5.72036       -2.77770
H          0.24701       -6.25493       -1.06458
H         -0.49204       -7.28858       -2.27668

--Link1--
%chk=JID_8947.chk
%mem=8GB
%nprocshared=4
# B3LYP/6-311++G(d,p) empiricaldispersion=gd3bj scf=xqc pop=npa geom=check

CID_149691342_JID_8947_Energie_neutraal

0 1

--Link1--
%chk=JID_8947.chk
%mem=8GB
%nprocshared=4
# B3LYP/6-311++G(d,p) empiricaldispersion=gd3bj scf=xqc pop=npa geom=check

CID_149691342_JID_8947_Energie_kation

1 2

--Link1--
%chk=JID_8947.chk
%mem=8GB
%nprocshared=4
# B3LYP/6-311++G(d,p) empiricaldispersion=gd3bj scf=xqc pop=npa geom=check

CID_149691342_JID_8947_Energie_anion

-1 2
