%chk=JID_847.chk
%mem=8GB
%nprocshared=4
# opt freq B3LYP/6-31G(d) empiricaldispersion=gd3bj scf=xqc

CID_116944138_JID_847_neutraal

0 1
C          1.04961        0.05978        0.06297
C          0.80880       -1.43861       -0.04733
C          1.27598       -2.25082        1.17239
C          0.53449       -1.93651        2.49962
C          1.18242       -2.69934        3.71399
C          1.04356       -1.41690        4.54926
C          1.01274       -0.62998        3.22953
C         -0.99064       -2.13842        2.47186
O         -1.63639       -1.10552        1.73745
N          1.17426       -3.67675        0.82376
H          0.40127        0.52132        0.81116
H          0.83369        0.54324       -0.89558
H          2.09160        0.27449        0.31958
H         -0.24879       -1.62125       -0.26762
H          1.36108       -1.78769       -0.93101
H          2.34591       -2.04795        1.31155
H          0.63478       -3.56710        4.09397
H          2.22945       -2.99381        3.56797
H          1.88156       -1.19221        5.21421
H          0.11327       -1.35715        5.12475
H          2.00527       -0.27618        2.92455
H          0.33005        0.22365        3.22351
H         -1.25834       -3.09639        2.01641
H         -1.42330       -2.13953        3.47842
H         -1.60588       -0.29504        2.27316
H          1.43529       -4.26404        1.61211
H          0.21707       -3.91180        0.56590

--Link1--
%chk=JID_847.chk
%mem=8GB
%nprocshared=4
# B3LYP/6-311++G(d,p) empiricaldispersion=gd3bj scf=xqc pop=npa geom=check

CID_116944138_JID_847_Energie_neutraal

0 1

--Link1--
%chk=JID_847.chk
%mem=8GB
%nprocshared=4
# B3LYP/6-311++G(d,p) empiricaldispersion=gd3bj scf=xqc pop=npa geom=check

CID_116944138_JID_847_Energie_kation

1 2

--Link1--
%chk=JID_847.chk
%mem=8GB
%nprocshared=4
# B3LYP/6-311++G(d,p) empiricaldispersion=gd3bj scf=xqc pop=npa geom=check

CID_116944138_JID_847_Energie_anion

-1 2
