%chk=JID_10067.chk
%mem=8GB
%nprocshared=4
# opt freq B3LYP/6-31G(d) empiricaldispersion=gd3bj scf=xqc

CID_22749656_JID_10067_neutraal

0 1
C          0.90800       -0.03469       -0.01826
C          0.53251       -0.00253        1.47794
N          1.65183        0.50382        2.28646
C          1.39558        0.37793        3.72852
C          1.60549       -1.04116        4.31036
N          2.98707       -1.49941        4.14410
C          3.22103       -2.84529        4.67939
C          2.58289       -4.00254        3.87589
N          2.82914       -3.87959        2.43297
C          2.31739       -5.03838        1.67895
C          0.77777       -5.14210        1.57871
N          0.16985       -3.84105        1.27308
C         -1.26693       -3.94510        0.98156
C         -2.15575       -4.22147        2.21272
N         -1.74958       -3.44316        3.39092
N          1.53445        1.22242       -0.45128
C          4.91035       -0.99520        0.37591
C          4.57555       -2.32608       -0.28493
O          5.06321       -3.40191        0.51493
O          4.18773       -0.86334        1.60262
H          0.01893       -0.23306       -0.62561
H          1.61690       -0.84957       -0.19824
H         -0.33315        0.65653        1.61419
H          0.23970       -1.00932        1.78415
H          2.49653       -0.02831        2.04962
H          2.07963        1.06467        4.24226
H          0.38368        0.72781        3.96678
H          1.36335       -1.00613        5.37917
H          0.90319       -1.73516        3.83941
H          3.25010       -1.50456        3.15261
H          4.30739       -2.99837        4.68612
H          2.90125       -2.90074        5.72674
H          3.00372       -4.94421        4.24793
H          1.50651       -4.02193        4.07719
H          2.34880       -3.04872        2.07810
H          2.71086       -4.95107        0.65891
H          2.72972       -5.97071        2.08257
H          0.53740       -5.86903        0.79387
H          0.38148       -5.53137        2.52328
H          0.25703       -3.23646        2.09078
H         -1.56968       -2.97905        0.55880
H         -1.45642       -4.69139        0.20122
H         -3.19422       -3.97873        1.96258
H         -2.12133       -5.28661        2.46753
H         -2.46258       -3.55274        4.11298
H         -0.90681       -3.86330        3.77992
H          0.83398        1.96135       -0.38340
H          2.19785        1.46872        0.29239
H          4.63710       -0.15838       -0.27269
H          5.97946       -0.94628        0.60706
H          3.49583       -2.45505       -0.40565
H          5.05346       -2.39487       -1.26613
H          4.50468       -3.41077        1.32433
H          4.68947       -0.21585        2.13632

--Link1--
%chk=JID_10067.chk
%mem=8GB
%nprocshared=4
# B3LYP/6-311++G(d,p) empiricaldispersion=gd3bj scf=xqc pop=npa geom=check

CID_22749656_JID_10067_Energie_neutraal

0 1

--Link1--
%chk=JID_10067.chk
%mem=8GB
%nprocshared=4
# B3LYP/6-311++G(d,p) empiricaldispersion=gd3bj scf=xqc pop=npa geom=check

CID_22749656_JID_10067_Energie_kation

1 2

--Link1--
%chk=JID_10067.chk
%mem=8GB
%nprocshared=4
# B3LYP/6-311++G(d,p) empiricaldispersion=gd3bj scf=xqc pop=npa geom=check

CID_22749656_JID_10067_Energie_anion

-1 2
