%chk=JID_5317.chk
%mem=8GB
%nprocshared=4
# opt freq B3LYP/6-31G(d) empiricaldispersion=gd3bj scf=xqc

CID_62998245_JID_5317_neutraal

0 1
C          0.98191       -0.08658       -0.04665
O          0.25845       -1.16455        0.52676
C          1.07223       -1.92573        1.43264
C          0.40499       -3.29307        1.62222
N          0.33012       -3.97152        0.32556
C         -0.59681       -5.09239        0.31186
C         -2.04245       -4.81726       -0.07932
C         -2.83567       -5.96458       -0.33794
C         -4.17776       -5.89431       -0.69916
C         -4.80686       -4.65889       -0.81262
C         -4.07307       -3.48575       -0.56153
C         -2.71919       -3.57929       -0.20659
N         -2.29017       -2.27630       -0.04119
C         -3.30888       -1.38699       -0.25843
C         -4.42753       -2.10794       -0.58696
H          0.29546        0.49973       -0.66327
H          1.78497       -0.46641       -0.68546
H          1.39371        0.56077        0.73359
H          2.08547       -2.05055        1.03164
H          1.12942       -1.39292        2.38791
H          0.98935       -3.89496        2.32607
H         -0.59447       -3.14436        2.04592
H          0.11239       -3.32176       -0.42818
H         -0.19880       -5.79635       -0.43039
H         -0.58074       -5.62179        1.27312
H         -2.38024       -6.95189       -0.25711
H         -4.73701       -6.80566       -0.89203
H         -5.85457       -4.60131       -1.09138
H         -1.34839       -1.99839        0.20789
H         -3.14050       -0.32313       -0.16112
H         -5.40006       -1.69576       -0.82055

--Link1--
%chk=JID_5317.chk
%mem=8GB
%nprocshared=4
# B3LYP/6-311++G(d,p) empiricaldispersion=gd3bj scf=xqc pop=npa geom=check

CID_62998245_JID_5317_Energie_neutraal

0 1

--Link1--
%chk=JID_5317.chk
%mem=8GB
%nprocshared=4
# B3LYP/6-311++G(d,p) empiricaldispersion=gd3bj scf=xqc pop=npa geom=check

CID_62998245_JID_5317_Energie_kation

1 2

--Link1--
%chk=JID_5317.chk
%mem=8GB
%nprocshared=4
# B3LYP/6-311++G(d,p) empiricaldispersion=gd3bj scf=xqc pop=npa geom=check

CID_62998245_JID_5317_Energie_anion

-1 2
