%chk=JID_9937.chk
%mem=8GB
%nprocshared=4
# opt freq B3LYP/6-31G(d) empiricaldispersion=gd3bj scf=xqc

CID_108212224_JID_9937_neutraal

0 1
C          1.06414        0.06097       -0.04657
C          1.19019       -0.45187       -1.49582
C          2.50201       -1.24139       -1.65540
C          0.01839       -1.44017       -1.71968
C          1.13344        0.68913       -2.50784
C          1.75705        1.93313       -2.46882
S          1.29511        2.79238       -3.88021
N          0.34610        1.54932       -4.45006
N          0.34491        0.50022       -3.64988
C          2.69434        2.51126       -1.53509
O          3.66092        1.88968       -1.09697
C          2.42437        3.89568       -1.03082
C          3.46152        4.76350       -0.69241
C          3.13065        6.03141       -0.21554
C          1.79149        6.37715       -0.05600
C          0.82462        5.44623       -0.39819
N          1.10588        4.21734       -0.88147
O          4.77393        4.46233       -0.92251
C          5.43533        4.12212        0.29826
H          0.97107       -0.77240        0.66000
H          0.18016        0.69842        0.07303
H          1.93538        0.63935        0.27079
H          2.54282       -2.08682       -0.95894
H          2.60163       -1.64089       -2.67171
H          3.38080       -0.61805       -1.46521
H         -0.95020       -0.93294       -1.63480
H          0.06482       -1.90421       -2.71205
H          0.03447       -2.25121       -0.98211
H          3.91014        6.75185        0.01674
H          1.50847        7.35629        0.31639
H         -0.23347        5.67349       -0.29326
H          5.60398        5.01634        0.90758
H          4.87549        3.37400        0.87113
H          6.41009        3.69595        0.04298

--Link1--
%chk=JID_9937.chk
%mem=8GB
%nprocshared=4
# B3LYP/6-311++G(d,p) empiricaldispersion=gd3bj scf=xqc pop=npa geom=check

CID_108212224_JID_9937_Energie_neutraal

0 1

--Link1--
%chk=JID_9937.chk
%mem=8GB
%nprocshared=4
# B3LYP/6-311++G(d,p) empiricaldispersion=gd3bj scf=xqc pop=npa geom=check

CID_108212224_JID_9937_Energie_kation

1 2

--Link1--
%chk=JID_9937.chk
%mem=8GB
%nprocshared=4
# B3LYP/6-311++G(d,p) empiricaldispersion=gd3bj scf=xqc pop=npa geom=check

CID_108212224_JID_9937_Energie_anion

-1 2
