%chk=JID_10066.chk
%mem=8GB
%nprocshared=4
# opt freq B3LYP/6-31G(d) empiricaldispersion=gd3bj scf=xqc

CID_103127549_JID_10066_neutraal

0 1
C          1.08928        0.03597       -0.02711
C          0.85718        0.77997       -1.33410
N          1.74591        0.24145       -2.35887
C          1.53629        0.82748       -3.69602
C          1.87124        2.33703       -3.79074
C          3.19473        2.87335       -3.27713
C          4.36959        2.12228       -3.19324
C          5.53126        2.73325       -2.73975
N          5.60873        4.02901       -2.37437
C          4.47374        4.74821       -2.47300
C          3.26705        4.22614       -2.91535
C          2.19227       -0.09923       -4.69831
C          2.98942        0.10540       -5.81825
C          3.56311        1.22970       -6.49274
C          4.33408        1.04963       -7.58205
C          4.60264       -0.26992       -8.11601
C          4.06108       -1.33106       -7.50127
N          3.26212       -1.15981       -6.36884
N          2.65628       -2.14317       -5.66716
C          2.02205       -1.51067       -4.68571
H          0.88774       -1.03480       -0.13949
H          0.42353        0.42408        0.75050
H          2.12061        0.15696        0.32155
H         -0.18997        0.65558       -1.63132
H          1.04262        1.84592       -1.16728
H          2.71433        0.37612       -2.07288
H          0.46305        0.74482       -3.92751
H          1.74125        2.67682       -4.82466
H          1.08469        2.86275       -3.22951
H          4.41535        1.07717       -3.47718
H          6.45992        2.17444       -2.66211
H          4.55905        5.79120       -2.18190
H          2.39726        4.87317       -2.97522
H          3.39794        2.23790       -6.13429
H          4.77834        1.90017       -8.09143
H          5.22797       -0.37225       -8.99571
H          4.20258       -2.35175       -7.83002
H          1.44875       -2.09562       -3.97595

--Link1--
%chk=JID_10066.chk
%mem=8GB
%nprocshared=4
# B3LYP/6-311++G(d,p) empiricaldispersion=gd3bj scf=xqc pop=npa geom=check

CID_103127549_JID_10066_Energie_neutraal

0 1

--Link1--
%chk=JID_10066.chk
%mem=8GB
%nprocshared=4
# B3LYP/6-311++G(d,p) empiricaldispersion=gd3bj scf=xqc pop=npa geom=check

CID_103127549_JID_10066_Energie_kation

1 2

--Link1--
%chk=JID_10066.chk
%mem=8GB
%nprocshared=4
# B3LYP/6-311++G(d,p) empiricaldispersion=gd3bj scf=xqc pop=npa geom=check

CID_103127549_JID_10066_Energie_anion

-1 2
