%chk=JID_9195.chk
%mem=8GB
%nprocshared=4
# opt freq B3LYP/6-31G(d) empiricaldispersion=gd3bj scf=xqc

CID_80814089_JID_9195_neutraal

0 1
C          1.06253       -0.06470       -0.04364
C          1.01123       -0.50672        1.41371
C          2.05720        0.19033        2.28807
N          1.75467        1.60328        2.50814
C          0.75408        1.91083        3.42900
C          0.78770        1.46525        4.73240
C         -0.23476        1.87016        5.56035
N         -1.23740        2.63702        5.11584
C         -1.17509        3.04152        3.84666
N         -0.21826        2.71222        2.97935
N         -2.20936        3.83323        3.38457
N         -0.32446        1.49959        6.89436
C          0.86008        1.56406        7.74932
C          1.35513        2.98402        8.00554
C          0.56929        3.62777        9.12961
O          0.83119        3.29129       10.28909
N         -0.43346        4.53945        8.84140
C         -0.86301        4.95556        7.51235
C         -1.23457        5.06126        9.93964
H          0.80736        0.99355       -0.15144
H          0.34597       -0.64245       -0.63627
H          2.05879       -0.22519       -0.46774
H          0.00183       -0.34495        1.80869
H          1.19682       -1.58701        1.44772
H          2.16162       -0.34819        3.23667
H          3.03670        0.12790        1.79958
H          1.49255        2.08523        1.64957
H          1.59036        0.83732        5.08715
H         -2.27871        3.73139        2.38129
H         -3.04233        3.63663        3.92190
H         -1.13975        1.96517        7.28919
H          0.60693        1.07523        8.69784
H          1.67031        0.96524        7.31823
H          2.39218        2.93080        8.36444
H          1.40500        3.59104        7.10288
H         -1.81027        4.45816        7.28584
H         -1.01997        6.03881        7.51502
H         -0.13952        4.72700        6.73423
H         -0.86396        4.74698       10.91843
H         -1.22190        6.15463        9.89815
H         -2.26238        4.70458        9.82248

--Link1--
%chk=JID_9195.chk
%mem=8GB
%nprocshared=4
# B3LYP/6-311++G(d,p) empiricaldispersion=gd3bj scf=xqc pop=npa geom=check

CID_80814089_JID_9195_Energie_neutraal

0 1

--Link1--
%chk=JID_9195.chk
%mem=8GB
%nprocshared=4
# B3LYP/6-311++G(d,p) empiricaldispersion=gd3bj scf=xqc pop=npa geom=check

CID_80814089_JID_9195_Energie_kation

1 2

--Link1--
%chk=JID_9195.chk
%mem=8GB
%nprocshared=4
# B3LYP/6-311++G(d,p) empiricaldispersion=gd3bj scf=xqc pop=npa geom=check

CID_80814089_JID_9195_Energie_anion

-1 2
