%chk=JID_3997.chk
%mem=8GB
%nprocshared=4
# opt freq B3LYP/6-31G(d) empiricaldispersion=gd3bj scf=xqc

CID_55292271_JID_3997_neutraal

0 1
C          1.07063       -0.03136        0.06347
C          0.67442        0.80996       -1.14673
C          1.11676        0.19747       -2.50820
C          0.55221       -1.20339       -2.73681
N          1.40744       -2.24024       -2.54910
C          0.93617       -3.49089       -2.74055
C         -0.36653       -3.77513       -3.10985
C         -1.24744       -2.71235       -3.30630
C         -0.77823       -1.40880       -3.10733
C         -2.68253       -2.95346       -3.67960
O         -3.51153       -2.84113       -2.53204
N          0.79360        1.13040       -3.61050
O         -0.74048        1.06314       -1.12023
H          0.53791       -0.98776        0.08480
H          0.80061        0.49089        0.98792
H          2.14729       -0.22543        0.07625
H          1.15636        1.79025       -1.04318
H          2.21065        0.10779       -2.49401
H          1.65928       -4.28618       -2.58136
H         -0.68019       -4.80556       -3.24187
H         -1.44997       -0.56463       -3.24079
H         -3.01655       -2.22951       -4.43014
H         -2.81543       -3.95330       -4.10606
H         -2.97610       -3.07192       -1.75417
H          0.86062        0.63440       -4.49672
H         -0.17223        1.43755       -3.49222
H         -1.17944        0.25793       -0.79573

--Link1--
%chk=JID_3997.chk
%mem=8GB
%nprocshared=4
# B3LYP/6-311++G(d,p) empiricaldispersion=gd3bj scf=xqc pop=npa geom=check

CID_55292271_JID_3997_Energie_neutraal

0 1

--Link1--
%chk=JID_3997.chk
%mem=8GB
%nprocshared=4
# B3LYP/6-311++G(d,p) empiricaldispersion=gd3bj scf=xqc pop=npa geom=check

CID_55292271_JID_3997_Energie_kation

1 2

--Link1--
%chk=JID_3997.chk
%mem=8GB
%nprocshared=4
# B3LYP/6-311++G(d,p) empiricaldispersion=gd3bj scf=xqc pop=npa geom=check

CID_55292271_JID_3997_Energie_anion

-1 2
