%chk=JID_10810.chk
%mem=8GB
%nprocshared=4
# opt freq B3LYP/6-31G(d) empiricaldispersion=gd3bj scf=xqc

CID_82766908_JID_10810_neutraal

0 1
C          0.95364        0.01214       -0.08777
C          0.61756        1.47428       -0.06654
C         -0.68587        1.90152       -0.37146
C         -1.05326        3.26286       -0.36512
C         -0.05008        4.19747       -0.02250
C          1.24491        3.77450        0.30847
C          1.57628        2.42140        0.29060
C         -0.30064        5.59717       -0.01139
C         -0.93987        6.63245       -0.15284
C         -2.36538        8.11388       -0.51873
N         -3.94771        8.03580       -0.39206
N         -2.41723        3.49546       -0.72359
C         -3.23511        4.59244       -0.89515
O         -4.40130        4.45166       -1.25766
C         -2.74591        5.94896       -0.69799
C         -1.73007        6.67419       -2.03264
C         -0.49963        7.97078       -1.63565
C         -0.32396        8.56663        0.07719
C         -1.37644        7.87477        1.40639
C         -2.58857        6.56770        1.02379
H          0.52960       -0.46561       -0.97716
H          0.55513       -0.47681        0.80655
H          2.03672       -0.14671       -0.11694
H         -1.42373        1.14268       -0.62857
H          2.00441        4.50546        0.57828
H          2.58756        2.11711        0.55041
H         -2.26879        9.07008        0.05275
H         -2.37700        8.57703       -1.53619
H         -4.28448        8.99765       -0.40994
H         -4.30679        7.61726       -1.25179
H         -2.95362        2.65866       -0.92115
H         -1.72352        6.20475       -3.01369
H          0.17309        8.33251       -2.40983
H          0.43819        9.30301        0.32192
H         -1.23329        8.19422        2.43554
H         -3.11751        6.05836        1.82419

--Link1--
%chk=JID_10810.chk
%mem=8GB
%nprocshared=4
# B3LYP/6-311++G(d,p) empiricaldispersion=gd3bj scf=xqc pop=npa geom=check

CID_82766908_JID_10810_Energie_neutraal

0 1

--Link1--
%chk=JID_10810.chk
%mem=8GB
%nprocshared=4
# B3LYP/6-311++G(d,p) empiricaldispersion=gd3bj scf=xqc pop=npa geom=check

CID_82766908_JID_10810_Energie_kation

1 2

--Link1--
%chk=JID_10810.chk
%mem=8GB
%nprocshared=4
# B3LYP/6-311++G(d,p) empiricaldispersion=gd3bj scf=xqc pop=npa geom=check

CID_82766908_JID_10810_Energie_anion

-1 2
