%chk=JID_6778.chk
%mem=8GB
%nprocshared=4
# opt freq B3LYP/6-31G(d) empiricaldispersion=gd3bj scf=xqc

CID_153968843_JID_6778_neutraal

0 1
C          1.03160       -0.07860        0.05314
N          0.41898       -1.28886       -0.50556
C         -0.89316       -1.61045        0.05320
C          0.59535       -1.42315       -1.89419
C         -0.46775       -1.55993       -2.79761
C         -0.24728       -1.69239       -4.17263
C          1.04958       -1.71007       -4.67699
C          2.14096       -1.60843       -3.81032
C          1.89503       -1.45832       -2.43222
C          3.56009       -1.65778       -4.33490
N          4.19435       -2.97127       -4.39787
C          4.34317       -3.68504       -3.13696
C          4.84113       -5.04438       -3.60113
C          4.01773       -5.30211       -4.85568
C          3.66261       -3.90596       -5.39122
O          2.83618       -6.02785       -4.50957
H          0.87971       -0.04197        1.13800
H          0.58310        0.82321       -0.37953
H          2.11407       -0.04946       -0.10655
H         -1.63954       -0.85267       -0.21010
H         -1.23722       -2.59586       -0.28072
H         -0.83329       -1.65527        1.14655
H         -1.49799       -1.54443       -2.45619
H         -1.09376       -1.78124       -4.84858
H          1.20347       -1.81178       -5.74855
H          2.74697       -1.40230       -1.75789
H          3.58687       -1.19806       -5.33197
H          4.18273       -0.99623       -3.71764
H          5.06367       -3.20161       -2.47021
H          3.39373       -3.80935       -2.60530
H          4.70488       -5.80991       -2.83125
H          5.90612       -4.98232       -3.85672
H          4.57397       -5.89744       -5.58589
H          2.58304       -3.82250       -5.54247
H          4.16030       -3.72588       -6.34990
H          2.29557       -5.45416       -3.93673

--Link1--
%chk=JID_6778.chk
%mem=8GB
%nprocshared=4
# B3LYP/6-311++G(d,p) empiricaldispersion=gd3bj scf=xqc pop=npa geom=check

CID_153968843_JID_6778_Energie_neutraal

0 1

--Link1--
%chk=JID_6778.chk
%mem=8GB
%nprocshared=4
# B3LYP/6-311++G(d,p) empiricaldispersion=gd3bj scf=xqc pop=npa geom=check

CID_153968843_JID_6778_Energie_kation

1 2

--Link1--
%chk=JID_6778.chk
%mem=8GB
%nprocshared=4
# B3LYP/6-311++G(d,p) empiricaldispersion=gd3bj scf=xqc pop=npa geom=check

CID_153968843_JID_6778_Energie_anion

-1 2
