%chk=JID_8987.chk
%mem=8GB
%nprocshared=4
# opt freq B3LYP/6-31G(d) empiricaldispersion=gd3bj scf=xqc

CID_140553441_JID_8987_neutraal

0 1
C         -1.50500        0.02200       -0.20100
C         -0.76959        0.25820        1.11605
C          0.59784        0.90624        0.88592
N          1.37750        0.11751       -0.06226
C          0.73428       -0.07684       -1.36016
C         -0.62551       -0.75451       -1.17767
N          2.75365        0.38126       -0.08378
C          3.45054        1.35718       -0.75949
O          4.67639        1.27118       -0.86302
C          2.74256        2.52182       -1.34508
C          2.61546        2.59600       -2.68199
C          1.97698        3.80434       -3.31351
C          0.90969        4.45797       -2.43341
C          1.36507        4.50186       -0.99165
C          2.24765        3.60652       -0.51035
C          1.50826        3.20568       -4.63001
N          2.54450        2.19345       -4.94139
N          2.94256        1.70247       -3.67729
H         -2.43530       -0.52652       -0.01718
H         -1.78073        0.98680       -0.64424
H         -1.37617        0.89644        1.76850
H         -0.63913       -0.69922        1.63650
H          0.44733        1.92759        0.52640
H          1.11864        0.97000        1.84882
H          1.35561       -0.71041       -2.00418
H          0.58126        0.87536       -1.87698
H         -0.48074       -1.77666       -0.80525
H         -1.13140       -0.83548       -2.14640
H          3.35755       -0.36796        0.24443
H          2.77341        4.53633       -3.51718
H         -0.04425        3.91961       -2.48535
H          0.72499        5.47757       -2.79052
H          0.96443        5.27905       -0.34779
H          2.57954        3.64187        0.52315
H          1.44120        3.95445       -5.42486
H          0.53093        2.71703       -4.52739
H          2.13517        1.44695       -5.50809
H          3.87839        1.29238       -3.57822

--Link1--
%chk=JID_8987.chk
%mem=8GB
%nprocshared=4
# B3LYP/6-311++G(d,p) empiricaldispersion=gd3bj scf=xqc pop=npa geom=check

CID_140553441_JID_8987_Energie_neutraal

0 1

--Link1--
%chk=JID_8987.chk
%mem=8GB
%nprocshared=4
# B3LYP/6-311++G(d,p) empiricaldispersion=gd3bj scf=xqc pop=npa geom=check

CID_140553441_JID_8987_Energie_kation

1 2

--Link1--
%chk=JID_8987.chk
%mem=8GB
%nprocshared=4
# B3LYP/6-311++G(d,p) empiricaldispersion=gd3bj scf=xqc pop=npa geom=check

CID_140553441_JID_8987_Energie_anion

-1 2
