%chk=JID_8734.chk
%mem=8GB
%nprocshared=4
# opt freq B3LYP/6-31G(d) empiricaldispersion=gd3bj scf=xqc

CID_113556060_JID_8734_neutraal

0 1
C          0.94702       -0.05427        0.06517
C          0.45435       -1.26489        0.84446
C          0.75775       -1.21121        2.35566
C          0.20360        0.07516        3.07547
C         -1.30314        0.34352        2.98276
C         -1.79746        1.66688        2.98640
C         -3.18056        1.89952        2.95564
C         -4.09257        0.84199        2.91505
C         -3.61651       -0.46228        2.91935
C         -2.24061       -0.70450        2.96555
O         -5.40875        1.21492        2.88759
C         -6.36841        0.16892        2.78962
O         -0.85591        2.66367        3.04566
C         -1.31121        4.00646        2.93490
N          0.60481        0.03312        4.49960
O          0.25950       -2.37829        3.04660
C          0.84734       -3.61345        2.66085
C          0.39206       -4.66822        3.65187
H          0.37828        0.84480        0.31940
H          0.82612       -0.22596       -1.00936
H          2.00695        0.13572        0.26065
H         -0.61742       -1.41093        0.67129
H          0.93918       -2.14827        0.41319
H          1.84985       -1.20433        2.48334
H          0.73416        0.92233        2.62594
H         -3.58763        2.90533        2.97290
H         -4.28087       -1.31938        2.90064
H         -1.92180       -1.74209        2.99476
H         -6.23978       -0.39767        1.86122
H         -6.32766       -0.48955        3.66376
H         -7.36181        0.62687        2.76552
H         -0.43219        4.65808        2.93680
H         -1.84187        4.16777        1.99068
H         -1.93192        4.28469        3.79289
H          0.15796        0.81730        4.97296
H          0.19800       -0.81703        4.89251
H          0.50039       -3.89315        1.66183
H          1.93936       -3.53865        2.66403
H         -0.70170       -4.70198        3.70534
H          0.76324       -5.65726        3.37026
H          0.75078       -4.42908        4.65850

--Link1--
%chk=JID_8734.chk
%mem=8GB
%nprocshared=4
# B3LYP/6-311++G(d,p) empiricaldispersion=gd3bj scf=xqc pop=npa geom=check

CID_113556060_JID_8734_Energie_neutraal

0 1

--Link1--
%chk=JID_8734.chk
%mem=8GB
%nprocshared=4
# B3LYP/6-311++G(d,p) empiricaldispersion=gd3bj scf=xqc pop=npa geom=check

CID_113556060_JID_8734_Energie_kation

1 2

--Link1--
%chk=JID_8734.chk
%mem=8GB
%nprocshared=4
# B3LYP/6-311++G(d,p) empiricaldispersion=gd3bj scf=xqc pop=npa geom=check

CID_113556060_JID_8734_Energie_anion

-1 2
