%chk=JID_4210.chk
%mem=8GB
%nprocshared=4
# opt freq B3LYP/6-31G(d) empiricaldispersion=gd3bj scf=xqc

CID_19890479_JID_4210_neutraal

0 1
C          0.94514       -0.04746       -0.06883
C          0.38280        0.62290       -1.31234
C          0.90149        0.02288       -2.62294
C          0.57088       -1.45384       -2.84990
N         -0.85980       -1.68454       -2.93711
C         -1.51620       -2.74975       -3.47689
O         -2.67811       -2.92785       -3.08061
C         -0.92583       -3.65581       -4.57670
C         -0.28216       -2.91578       -5.74878
C         -0.14688       -4.82915       -4.03959
C         -0.52754       -6.11330       -4.16902
C          1.13603       -4.56608       -3.25224
O          2.09721       -4.11364       -3.93426
O          1.07169       -4.81269       -2.01643
H          0.59327       -1.07909        0.02403
H          0.62344        0.49321        0.82715
H          2.03951       -0.05369       -0.08588
H         -0.71172        0.58917       -1.28222
H          0.65942        1.68407       -1.28897
H          0.49274        0.61072       -3.45460
H          1.99125        0.14423       -2.65917
H          1.05293       -1.76819       -3.77106
H          0.96075       -2.06963       -2.03573
H         -1.40397       -1.33078       -2.16268
H         -1.83836       -4.07910       -5.03023
H          0.77040       -2.67479       -5.59171
H         -0.32368       -3.53566       -6.65236
H         -0.81188       -1.98126       -5.96264
H          0.06856       -6.90854       -3.72920
H         -1.43649       -6.38971       -4.68857

--Link1--
%chk=JID_4210.chk
%mem=8GB
%nprocshared=4
# B3LYP/6-311++G(d,p) empiricaldispersion=gd3bj scf=xqc pop=npa geom=check

CID_19890479_JID_4210_Energie_neutraal

0 1

--Link1--
%chk=JID_4210.chk
%mem=8GB
%nprocshared=4
# B3LYP/6-311++G(d,p) empiricaldispersion=gd3bj scf=xqc pop=npa geom=check

CID_19890479_JID_4210_Energie_kation

1 2

--Link1--
%chk=JID_4210.chk
%mem=8GB
%nprocshared=4
# B3LYP/6-311++G(d,p) empiricaldispersion=gd3bj scf=xqc pop=npa geom=check

CID_19890479_JID_4210_Energie_anion

-1 2
