%chk=JID_5040.chk
%mem=8GB
%nprocshared=4
# opt freq B3LYP/6-31G(d) empiricaldispersion=gd3bj scf=xqc

CID_64755152_JID_5040_neutraal

0 1
C          1.08436       -0.00717       -0.05321
C          1.15756       -1.21212       -0.97784
C          1.84825       -2.40634       -0.30835
N          0.88756       -3.23500        0.40430
C          1.40844       -4.26652        1.34334
C          0.27491       -5.33969        1.42124
C          0.14967       -6.26659        0.19336
C          1.50278       -6.88497       -0.17580
C          2.62842       -5.85916       -0.27877
C          2.74080       -5.01913        1.00382
C          4.01814       -4.17127        0.97876
C         -0.51042       -5.60016       -1.01575
C          1.50318       -3.59205        2.76350
O          1.21663       -2.41334        2.96955
N          1.88590       -4.37118        3.81724
H          0.54613       -0.24230        0.87009
H          0.56312        0.81833       -0.54817
H          2.08786        0.34076        0.21264
H          0.15058       -1.48225       -1.32024
H          1.72390       -0.92684       -1.87222
H          2.31008       -2.99978       -1.10164
H          2.62703       -2.02747        0.35908
H          0.27939       -2.61850        0.95609
H          0.45243       -5.98891        2.28981
H         -0.69396       -4.86277        1.62700
H         -0.51755       -7.09013        0.48301
H          1.42578       -7.44147       -1.11747
H          1.77330       -7.61988        0.59375
H          2.47295       -5.22103       -1.15416
H          3.57127       -6.39281       -0.45248
H          2.91174       -5.74103        1.81588
H          4.03979       -3.43968        1.79184
H          4.89422       -4.81798        1.10517
H          4.16019       -3.64953        0.02922
H         -0.74658       -6.35178       -1.77748
H         -1.44952       -5.11546       -0.72968
H          0.13144       -4.85553       -1.49280
H          1.99835       -5.37266        3.76333
H          1.88208       -3.93803        4.73176

--Link1--
%chk=JID_5040.chk
%mem=8GB
%nprocshared=4
# B3LYP/6-311++G(d,p) empiricaldispersion=gd3bj scf=xqc pop=npa geom=check

CID_64755152_JID_5040_Energie_neutraal

0 1

--Link1--
%chk=JID_5040.chk
%mem=8GB
%nprocshared=4
# B3LYP/6-311++G(d,p) empiricaldispersion=gd3bj scf=xqc pop=npa geom=check

CID_64755152_JID_5040_Energie_kation

1 2

--Link1--
%chk=JID_5040.chk
%mem=8GB
%nprocshared=4
# B3LYP/6-311++G(d,p) empiricaldispersion=gd3bj scf=xqc pop=npa geom=check

CID_64755152_JID_5040_Energie_anion

-1 2
