%chk=JID_6153.chk
%mem=8GB
%nprocshared=4
# opt freq B3LYP/6-31G(d) empiricaldispersion=gd3bj scf=xqc

CID_20722161_JID_6153_neutraal

0 1
C          0.93417       -0.02768       -0.07001
C          0.36041       -1.24342        0.64435
C          0.41404       -1.10548        2.16369
C         -0.47022        0.00933        2.66898
O         -1.50390        0.38510        2.13576
O          0.03439        0.51272        3.82653
C         -0.66926        1.62132        4.40127
C         -2.05779        1.27832        4.96088
C         -2.09750       -0.00725        5.79359
O         -1.23957        0.13411        6.94285
C         -0.16144       -0.68714        7.00067
O          0.16300       -1.50717        6.15473
C          0.63452       -0.43504        8.23682
C          0.14233        0.25294        9.28157
C          2.01262       -1.02412        8.23806
O         -2.51271        2.37929        5.76491
H          0.34679        0.87336        0.13014
H          0.93250       -0.19277       -1.15222
H          1.96701        0.15898        0.24119
H         -0.67120       -1.40534        0.31100
H          0.93533       -2.12914        0.34941
H          0.07958       -2.03515        2.63662
H          1.44856       -0.91790        2.47384
H         -0.03402        2.01339        5.20462
H         -0.73981        2.43615        3.66913
H         -2.77278        1.17446        4.13896
H         -3.10878       -0.14954        6.19029
H         -1.85771       -0.88570        5.18567
H          0.73565        0.41550       10.17633
H         -0.86348        0.66170        9.28869
H          1.96754       -2.11329        8.13571
H          2.60139       -0.61891        7.40830
H          2.55136       -0.80083        9.16521
H         -2.05276        2.30759        6.62205

--Link1--
%chk=JID_6153.chk
%mem=8GB
%nprocshared=4
# B3LYP/6-311++G(d,p) empiricaldispersion=gd3bj scf=xqc pop=npa geom=check

CID_20722161_JID_6153_Energie_neutraal

0 1

--Link1--
%chk=JID_6153.chk
%mem=8GB
%nprocshared=4
# B3LYP/6-311++G(d,p) empiricaldispersion=gd3bj scf=xqc pop=npa geom=check

CID_20722161_JID_6153_Energie_kation

1 2

--Link1--
%chk=JID_6153.chk
%mem=8GB
%nprocshared=4
# B3LYP/6-311++G(d,p) empiricaldispersion=gd3bj scf=xqc pop=npa geom=check

CID_20722161_JID_6153_Energie_anion

-1 2
