%chk=JID_10980.chk
%mem=8GB
%nprocshared=4
# opt freq B3LYP/6-31G(d) empiricaldispersion=gd3bj scf=xqc

CID_63221240_JID_10980_neutraal

0 1
C          2.49600       -0.00700       -0.12600
C          0.97514       -0.15779       -0.11432
C          0.30310        1.20849        0.02853
C         -1.22018        1.11906        0.01269
C         -1.82378        0.22246       -1.07579
C         -1.02100       -1.04467       -1.39418
C          0.49491       -0.85730       -1.38743
O         -2.31245        0.94956       -2.20493
C         -1.42577        1.29434       -3.26853
C         -0.58586        2.53789       -3.05394
N          0.71878        2.45331       -3.42443
C          1.51997        3.52879       -3.28302
C          0.97417        4.69902       -2.75925
C          1.38889        6.00819       -2.44373
N          0.40472        6.75804       -1.93331
N         -0.65762        5.91722       -1.93940
C         -0.36619        4.67142       -2.42478
N         -1.20238        3.62964       -2.55307
C         -1.93378        6.38110       -1.45666
N          2.84768        3.38504       -3.65557
H          2.83011        0.60246       -0.97279
H          2.84565        0.47197        0.79462
H          2.98252       -0.98526       -0.20011
H          0.70312       -0.77576        0.75154
H          0.61771        1.67807        0.96914
H          0.64793        1.87492       -0.76449
H         -1.64554        2.12784       -0.03890
H         -1.52046        0.70570        0.98541
H         -2.76294       -0.14424       -0.63857
H         -1.33720       -1.47568       -2.35082
H         -1.25460       -1.79295       -0.62453
H          0.81376       -0.28840       -2.26687
H          0.97123       -1.84205       -1.47127
H         -0.80982        0.44191       -3.56502
H         -2.06454        1.50924       -4.13348
H          2.37004        6.44800       -2.56455
H         -1.81514        6.69184       -0.41555
H         -2.24797        7.22630       -2.07425
H         -2.67334        5.57994       -1.52136
H          3.50860        3.95536       -3.14667
H          3.08892        2.40522       -3.75538

--Link1--
%chk=JID_10980.chk
%mem=8GB
%nprocshared=4
# B3LYP/6-311++G(d,p) empiricaldispersion=gd3bj scf=xqc pop=npa geom=check

CID_63221240_JID_10980_Energie_neutraal

0 1

--Link1--
%chk=JID_10980.chk
%mem=8GB
%nprocshared=4
# B3LYP/6-311++G(d,p) empiricaldispersion=gd3bj scf=xqc pop=npa geom=check

CID_63221240_JID_10980_Energie_kation

1 2

--Link1--
%chk=JID_10980.chk
%mem=8GB
%nprocshared=4
# B3LYP/6-311++G(d,p) empiricaldispersion=gd3bj scf=xqc pop=npa geom=check

CID_63221240_JID_10980_Energie_anion

-1 2
