%chk=JID_4241.chk
%mem=8GB
%nprocshared=4
# opt freq B3LYP/6-31G(d) empiricaldispersion=gd3bj scf=xqc

CID_77030107_JID_4241_neutraal

0 1
C          1.07292       -0.06819        0.00577
C          0.59485       -0.61359        1.34721
N          1.45042       -0.26463        2.48493
C          0.86723       -0.71458        3.74533
C          2.87878       -0.60282        2.36809
C          3.35117       -2.06288        2.59442
N          2.75444       -3.02510        1.66124
C          3.39799       -4.35687        1.71597
C          3.01625       -5.11236        2.99246
C          2.95858       -5.16998        0.48501
C          3.63424       -4.63645       -0.77176
N          4.68624       -5.16453       -1.33171
O          5.13875       -6.29307       -0.64288
N          3.11123       -3.48601       -1.30707
H          1.27006        1.00738        0.06341
H          0.30092       -0.22495       -0.75516
H          1.97872       -0.57244       -0.34231
H         -0.39852       -0.18042        1.52389
H          0.43915       -1.69310        1.26347
H          0.76299       -1.80394        3.79122
H          1.47603       -0.38745        4.59557
H         -0.12578       -0.27349        3.88801
H          3.27473       -0.24829        1.40955
H          3.40746        0.01189        3.11010
H          4.44202       -2.06757        2.47738
H          3.13961       -2.35190        3.62966
H          1.76783       -3.12673        1.90228
H          4.48873       -4.23950        1.68250
H          1.93038       -5.23133        3.07816
H          3.46363       -6.11243        2.99609
H          3.37424       -4.59698        3.88906
H          3.19047       -6.23156        0.61671
H          1.87082       -5.11144        0.34713
H          5.87762       -6.59211       -1.20439
H          2.76671       -2.85598       -0.58069
H          3.77292       -3.02849       -1.92406

--Link1--
%chk=JID_4241.chk
%mem=8GB
%nprocshared=4
# B3LYP/6-311++G(d,p) empiricaldispersion=gd3bj scf=xqc pop=npa geom=check

CID_77030107_JID_4241_Energie_neutraal

0 1

--Link1--
%chk=JID_4241.chk
%mem=8GB
%nprocshared=4
# B3LYP/6-311++G(d,p) empiricaldispersion=gd3bj scf=xqc pop=npa geom=check

CID_77030107_JID_4241_Energie_kation

1 2

--Link1--
%chk=JID_4241.chk
%mem=8GB
%nprocshared=4
# B3LYP/6-311++G(d,p) empiricaldispersion=gd3bj scf=xqc pop=npa geom=check

CID_77030107_JID_4241_Energie_anion

-1 2
