%chk=JID_8888.chk
%mem=8GB
%nprocshared=4
# opt freq B3LYP/6-31G(d) empiricaldispersion=gd3bj scf=xqc

CID_64358093_JID_8888_neutraal

0 1
C          0.93846        0.04687       -0.06337
C          0.22669        1.39242       -0.03160
C          0.68666        2.21808       -1.23958
C         -1.31501        1.20694        0.02049
C         -1.79438        0.23346        1.13897
C         -1.20655        0.39253        2.54979
C         -2.01340        1.33163        3.42117
O         -3.12665        0.97121        3.81342
N         -1.51478        2.58999        3.72125
C         -0.17594        3.07257        3.40936
C         -2.45156        3.57967        4.26692
C         -3.24977        4.29579        3.16880
C         -4.50262        3.52373        2.73252
C         -3.75644        5.62184        3.71221
N         -4.17677        6.72191        4.16300
C         -2.05301        2.56202        0.09004
C         -2.61563        3.06331       -1.24664
N         -3.77245        2.28321       -1.66740
H          0.61083       -0.55363       -0.91941
H          0.77852       -0.54393        0.84152
H          2.02218        0.18413       -0.15382
H          0.56172        1.92841        0.86222
H          0.33086        1.78122       -2.17859
H          0.32979        3.25023       -1.17856
H          1.78049        2.26529       -1.28499
H         -1.60447        0.71667       -0.91935
H         -2.89123        0.25058        1.18304
H         -1.54620       -0.78337        0.80466
H         -1.26759       -0.58300        3.05281
H         -0.14575        0.62126        2.53642
H         -0.20669        3.62552        2.46853
H          0.16249        3.74192        4.20640
H          0.54950        2.26298        3.34245
H         -3.13228        3.08651        4.97245
H         -1.87083        4.29535        4.86242
H         -2.61842        4.50613        2.29921
H         -5.19023        3.37351        3.57366
H         -5.04941        4.08111        1.96249
H         -4.27529        2.54219        2.31896
H         -2.88838        2.48877        0.78447
H         -1.39004        3.33298        0.49665
H         -2.93336        4.10461       -1.12379
H         -1.85609        3.04628       -2.03278
H         -4.12444        2.64703       -2.55249
H         -3.50367        1.31713       -1.84654

--Link1--
%chk=JID_8888.chk
%mem=8GB
%nprocshared=4
# B3LYP/6-311++G(d,p) empiricaldispersion=gd3bj scf=xqc pop=npa geom=check

CID_64358093_JID_8888_Energie_neutraal

0 1

--Link1--
%chk=JID_8888.chk
%mem=8GB
%nprocshared=4
# B3LYP/6-311++G(d,p) empiricaldispersion=gd3bj scf=xqc pop=npa geom=check

CID_64358093_JID_8888_Energie_kation

1 2

--Link1--
%chk=JID_8888.chk
%mem=8GB
%nprocshared=4
# B3LYP/6-311++G(d,p) empiricaldispersion=gd3bj scf=xqc pop=npa geom=check

CID_64358093_JID_8888_Energie_anion

-1 2
