%chk=JID_10413.chk
%mem=8GB
%nprocshared=4
# opt freq B3LYP/6-31G(d) empiricaldispersion=gd3bj scf=xqc

CID_106325148_JID_10413_neutraal

0 1
C          1.08300        1.23200        0.26800
C          0.14670        1.37218       -0.94065
S         -1.00106       -0.03169       -1.08736
C          0.24474       -1.35678       -1.00265
C          1.16544       -1.20460        0.21698
N          1.94841        0.04097        0.20283
C          3.02980        0.06594        1.20783
C          2.65305        0.02198        2.70554
N          2.39640       -1.32478        3.19440
C          3.21627       -2.14816        3.90245
O          2.85836       -3.27401        4.22914
C          4.52368       -1.61928        4.32484
C          5.56840       -1.66947        3.48674
C          6.89936       -1.18850        3.86870
C          8.01930       -1.97701        3.59162
C          9.30091       -1.53631        3.94126
C          9.48380       -0.31865        4.59934
C          8.37344        0.50305        4.79976
C          7.08885        0.06703        4.45649
N         10.77407        0.16863        4.83748
H          1.71258        2.13056        0.28868
H          0.48999        1.24117        1.19108
H         -0.44603        2.28744       -0.84220
H          0.72333        1.45371       -1.86850
H          0.82642       -1.35397       -1.93082
H         -0.28293       -2.31449       -0.94851
H          1.85133       -2.06085        0.21209
H          0.56159       -1.27936        1.12900
H          3.72937       -0.74953        0.98356
H          3.60534        0.98554        1.03831
H          3.46583        0.46930        3.28619
H          1.75882        0.61579        2.91427
H          1.50181       -1.74830        2.98539
H          4.58336       -1.25201        5.34121
H          5.47279       -2.10990        2.49744
H          7.90854       -2.94328        3.10475
H         10.15685       -2.15996        3.69723
H          8.49748        1.49416        5.22791
H          6.24583        0.72862        4.63804
H         10.81671        0.86917        5.57111
H         11.46703       -0.56209        4.96796

--Link1--
%chk=JID_10413.chk
%mem=8GB
%nprocshared=4
# B3LYP/6-311++G(d,p) empiricaldispersion=gd3bj scf=xqc pop=npa geom=check

CID_106325148_JID_10413_Energie_neutraal

0 1

--Link1--
%chk=JID_10413.chk
%mem=8GB
%nprocshared=4
# B3LYP/6-311++G(d,p) empiricaldispersion=gd3bj scf=xqc pop=npa geom=check

CID_106325148_JID_10413_Energie_kation

1 2

--Link1--
%chk=JID_10413.chk
%mem=8GB
%nprocshared=4
# B3LYP/6-311++G(d,p) empiricaldispersion=gd3bj scf=xqc pop=npa geom=check

CID_106325148_JID_10413_Energie_anion

-1 2
