%chk=JID_6262.chk
%mem=8GB
%nprocshared=4
# opt freq B3LYP/6-31G(d) empiricaldispersion=gd3bj scf=xqc

CID_66357780_JID_6262_neutraal

0 1
C          1.04597        0.07612        0.04575
C          0.69120        0.66982       -1.30849
N          0.27676       -0.39370       -2.21965
C          0.09584        0.14000       -3.57797
C         -0.71399       -0.90600       -4.37873
C          0.61561       -1.54666       -4.84306
C          1.31662       -0.18516       -4.51324
C          1.43638        0.83128       -5.66104
C          2.34398        1.89582       -5.05998
C          3.33890        1.12717       -4.19445
C          2.74943       -0.27080       -3.98150
O          0.71405       -1.98757       -6.21624
C         -0.20087       -3.00129       -6.64784
C          0.01636       -4.33859       -5.93789
O         -0.65134       -4.32007       -4.67101
C         -0.46316       -5.53295       -3.95613
H          0.19484       -0.45926        0.48003
H          1.33397        0.87088        0.74142
H          1.88672       -0.62141       -0.03424
H         -0.12304        1.39242       -1.18253
H          1.56233        1.20861       -1.69514
H          0.89364       -1.19977       -2.13535
H         -0.32079        1.15160       -3.62744
H         -1.38201       -1.56037       -3.80935
H         -1.29684       -0.46599       -5.19768
H          0.95816       -2.34281       -4.16856
H          1.92702        0.37705       -6.53032
H          0.47705        1.24415       -5.98768
H          1.75771        2.57303       -4.42713
H          2.83762        2.50127       -5.82573
H          3.49477        1.64250       -3.24065
H          4.31591        1.05446       -4.68478
H          2.83075       -0.59322       -2.94092
H          3.32383       -0.98885       -4.58063
H         -1.22639       -2.63944       -6.52070
H         -0.01778       -3.13366       -7.71889
H         -0.41571       -5.14417       -6.54148
H          1.08542       -4.52298       -5.78443
H         -0.86165       -6.37907       -4.52391
H          0.59791       -5.68849       -3.73964
H         -1.00560       -5.46118       -3.00950

--Link1--
%chk=JID_6262.chk
%mem=8GB
%nprocshared=4
# B3LYP/6-311++G(d,p) empiricaldispersion=gd3bj scf=xqc pop=npa geom=check

CID_66357780_JID_6262_Energie_neutraal

0 1

--Link1--
%chk=JID_6262.chk
%mem=8GB
%nprocshared=4
# B3LYP/6-311++G(d,p) empiricaldispersion=gd3bj scf=xqc pop=npa geom=check

CID_66357780_JID_6262_Energie_kation

1 2

--Link1--
%chk=JID_6262.chk
%mem=8GB
%nprocshared=4
# B3LYP/6-311++G(d,p) empiricaldispersion=gd3bj scf=xqc pop=npa geom=check

CID_66357780_JID_6262_Energie_anion

-1 2
