%chk=JID_4558.chk
%mem=8GB
%nprocshared=4
# opt freq B3LYP/6-31G(d) empiricaldispersion=gd3bj scf=xqc

CID_54477048_JID_4558_neutraal

0 1
C         -2.35300       -1.10000        0.46500
C         -2.49172        0.30500       -0.18933
N         -1.18910        0.96220       -0.09247
C         -0.83508        2.27415       -0.06280
C          0.55141        2.31482       -0.02017
C          1.03943        0.97353       -0.01485
C         -0.08025        0.16856       -0.03722
C         -0.07673       -1.21806       -0.02274
C          1.16037       -1.84582       -0.03162
C          2.33303       -1.07717       -0.01005
C          2.29186        0.33353        0.00610
O         -1.26282       -1.91361       -0.05451
C         -2.93269        0.23754       -1.66402
N         -4.27596       -0.32459       -1.84978
H         -3.27293       -1.67946        0.33569
H         -2.20400       -0.99933        1.54961
H         -3.19895        0.91007        0.39098
H         -1.56990        3.06800       -0.08652
H          1.15046        3.21581       -0.00082
H          1.21766       -2.93002       -0.04427
H          3.29856       -1.57858       -0.00519
H          3.21140        0.91007        0.02442
H         -2.93565        1.25137       -2.08286
H         -2.21910       -0.34181       -2.26221
H         -4.55364       -0.19032       -2.82378
H         -4.23894       -1.33795       -1.72720

--Link1--
%chk=JID_4558.chk
%mem=8GB
%nprocshared=4
# B3LYP/6-311++G(d,p) empiricaldispersion=gd3bj scf=xqc pop=npa geom=check

CID_54477048_JID_4558_Energie_neutraal

0 1

--Link1--
%chk=JID_4558.chk
%mem=8GB
%nprocshared=4
# B3LYP/6-311++G(d,p) empiricaldispersion=gd3bj scf=xqc pop=npa geom=check

CID_54477048_JID_4558_Energie_kation

1 2

--Link1--
%chk=JID_4558.chk
%mem=8GB
%nprocshared=4
# B3LYP/6-311++G(d,p) empiricaldispersion=gd3bj scf=xqc pop=npa geom=check

CID_54477048_JID_4558_Energie_anion

-1 2
