%chk=JID_10828.chk
%mem=8GB
%nprocshared=4
# opt freq B3LYP/6-31G(d) empiricaldispersion=gd3bj scf=xqc

CID_69811173_JID_10828_neutraal

0 1
C          1.09684       -0.00722        0.02389
C          0.38507       -0.82613        1.10587
C          0.67430       -0.35368        2.54029
C          0.18397        1.04917        2.92109
C         -1.30511        1.21008        2.80491
C         -1.89277        2.35222        2.41641
C         -3.36080        2.48559        2.14611
C         -4.19662        3.08880        3.27771
C         -3.75005        4.43440        3.85858
C         -3.46375        5.56683        2.86889
C         -4.54852        5.78004        1.81421
C         -4.37373        7.02976        0.94141
C         -2.94554        7.43614        0.57106
O         -2.08965        6.36924        0.18427
C         -2.45090        5.72389       -1.02711
C         -1.22291        5.03222       -1.53480
C         -1.07167        3.70166       -1.64814
C          0.15164        3.04735       -2.23147
C          0.95863        2.18000       -1.25771
C          0.17158        1.00768       -0.66397
H          1.47753       -0.68907       -0.74714
H          1.97361        0.49437        0.45058
H         -0.69410       -0.87372        0.92164
H          0.74983       -1.85921        1.03631
H          0.23025       -1.08038        3.23317
H          1.75743       -0.39624        2.71377
H          0.46493        1.23512        3.96504
H          0.70513        1.79955        2.31458
H         -1.91850        0.33911        3.02520
H         -1.28098        3.22674        2.19823
H         -3.47650        3.07140        1.22850
H         -3.78015        1.49947        1.90599
H         -5.22953        3.18607        2.91952
H         -4.23882        2.36679        4.10401
H         -4.52961        4.77186        4.55406
H         -2.85274        4.28033        4.47104
H         -3.32732        6.49271        3.44141
H         -2.50554        5.35881        2.38478
H         -4.59604        4.91230        1.15054
H         -5.53025        5.83652        2.30124
H         -4.94889        6.87211        0.02000
H         -4.84704        7.88296        1.44385
H         -2.96166        8.19915       -0.21651
H         -2.47806        7.90808        1.44266
H         -3.26469        5.01670       -0.84043
H         -2.78127        6.45425       -1.77444
H         -0.41229        5.69248       -1.83452
H         -1.88066        3.04267       -1.34037
H         -0.16516        2.43258       -3.08269
H          0.82440        3.81124       -2.64215
H          1.83290        1.79305       -1.79607
H          1.34340        2.80463       -0.44118
H         -0.56368        1.39998        0.04191
H         -0.39097        0.49270       -1.45219

--Link1--
%chk=JID_10828.chk
%mem=8GB
%nprocshared=4
# B3LYP/6-311++G(d,p) empiricaldispersion=gd3bj scf=xqc pop=npa geom=check

CID_69811173_JID_10828_Energie_neutraal

0 1

--Link1--
%chk=JID_10828.chk
%mem=8GB
%nprocshared=4
# B3LYP/6-311++G(d,p) empiricaldispersion=gd3bj scf=xqc pop=npa geom=check

CID_69811173_JID_10828_Energie_kation

1 2

--Link1--
%chk=JID_10828.chk
%mem=8GB
%nprocshared=4
# B3LYP/6-311++G(d,p) empiricaldispersion=gd3bj scf=xqc pop=npa geom=check

CID_69811173_JID_10828_Energie_anion

-1 2
