%chk=JID_2598.chk
%mem=8GB
%nprocshared=4
# opt freq B3LYP/6-31G(d) empiricaldispersion=gd3bj scf=xqc

CID_58836338_JID_2598_neutraal

0 1
C          0.93288        0.07289        0.01345
C          0.84177       -1.37511       -0.43065
C          1.25799       -2.41198        0.62230
C          0.37923       -2.59865        1.88725
C          0.68898       -3.97381        2.50367
C          0.80635       -3.74336        4.00290
O          1.10544       -2.35445        4.14498
C          0.79393       -1.66458        3.01193
O          0.84234       -0.44668        2.95490
C          1.96291       -4.54371        4.60328
C         -0.48156       -4.04908        4.76845
C         -1.11647       -2.44948        1.59974
H          0.13262        0.33011        0.71109
H          0.82631        0.73498       -0.85247
H          1.89909        0.28648        0.48040
H         -0.16632       -1.58583       -0.80411
H          1.51018       -1.49890       -1.29277
H          1.28867       -3.37246        0.08808
H          2.29334       -2.20375        0.92454
H         -0.05735       -4.73589        2.25086
H          1.64502       -4.35176        2.11687
H          2.08392       -4.31562        5.66850
H          1.80578       -5.62145        4.49286
H          2.91338       -4.27811        4.12604
H         -1.30442       -3.39823        4.46192
H         -0.79000       -5.09088        4.63514
H         -0.34429       -3.86576        5.84070
H         -1.36896       -1.43252        1.28314
H         -1.43532       -3.14167        0.81272
H         -1.72861       -2.65016        2.48282

--Link1--
%chk=JID_2598.chk
%mem=8GB
%nprocshared=4
# B3LYP/6-311++G(d,p) empiricaldispersion=gd3bj scf=xqc pop=npa geom=check

CID_58836338_JID_2598_Energie_neutraal

0 1

--Link1--
%chk=JID_2598.chk
%mem=8GB
%nprocshared=4
# B3LYP/6-311++G(d,p) empiricaldispersion=gd3bj scf=xqc pop=npa geom=check

CID_58836338_JID_2598_Energie_kation

1 2

--Link1--
%chk=JID_2598.chk
%mem=8GB
%nprocshared=4
# B3LYP/6-311++G(d,p) empiricaldispersion=gd3bj scf=xqc pop=npa geom=check

CID_58836338_JID_2598_Energie_anion

-1 2
