%chk=JID_6824.chk
%mem=8GB
%nprocshared=4
# opt freq B3LYP/6-31G(d) empiricaldispersion=gd3bj scf=xqc

CID_64160337_JID_6824_neutraal

0 1
C         -0.02900        0.88300        0.00000
C         -0.87348       -0.33066       -0.25216
C          0.57614       -0.48905        0.11361
N          1.55343       -0.90257       -0.89480
C          1.83976       -2.34249       -0.89430
C          0.68787       -3.24875       -1.34555
C          0.24953       -2.99447       -2.73965
N          0.42224       -1.94052       -3.50715
C         -0.25518       -2.29982       -4.64402
N         -0.82656       -3.51018       -4.60333
O         -0.49236       -3.97724       -3.33027
C         -0.32753       -1.38955       -5.77426
C          0.26420       -0.15369       -5.89356
O         -0.03733        0.40022       -7.09825
C         -0.82876       -0.49012       -7.75310
C         -1.03737       -1.61032       -6.98096
H         -0.19328        1.43854        0.91601
H          0.24250        1.50180       -0.84728
H         -1.61485       -0.59520        0.49285
H         -1.18653       -0.51748       -1.27257
H          0.80144       -0.81276        1.12854
H          1.25380       -0.63140       -1.83724
H          2.70139       -2.50521       -1.55372
H          2.16561       -2.64572        0.10831
H          1.01955       -4.29127       -1.26495
H         -0.16989       -3.14109       -0.67240
H          0.89550        0.44031       -5.24712
H         -1.15564       -0.18675       -8.73815
H         -1.62820       -2.47372       -7.25417

--Link1--
%chk=JID_6824.chk
%mem=8GB
%nprocshared=4
# B3LYP/6-311++G(d,p) empiricaldispersion=gd3bj scf=xqc pop=npa geom=check

CID_64160337_JID_6824_Energie_neutraal

0 1

--Link1--
%chk=JID_6824.chk
%mem=8GB
%nprocshared=4
# B3LYP/6-311++G(d,p) empiricaldispersion=gd3bj scf=xqc pop=npa geom=check

CID_64160337_JID_6824_Energie_kation

1 2

--Link1--
%chk=JID_6824.chk
%mem=8GB
%nprocshared=4
# B3LYP/6-311++G(d,p) empiricaldispersion=gd3bj scf=xqc pop=npa geom=check

CID_64160337_JID_6824_Energie_anion

-1 2
