%chk=JID_10350.chk
%mem=8GB
%nprocshared=4
# opt freq B3LYP/6-31G(d) empiricaldispersion=gd3bj scf=xqc

CID_128769226_JID_10350_neutraal

0 1
C          1.06150       -0.01109       -0.07807
C          0.43261        0.70980        1.11715
C         -1.10483        0.71892        1.03049
C         -1.61071        1.77845        0.04765
C         -1.15806        3.17727        0.46729
C          0.27207        3.20442        0.88732
N          1.03083        4.27017        1.03614
C          2.23715        3.80045        1.53045
C          2.20313        2.42452        1.65594
N          0.95802        2.06479        1.23129
S          3.62554        4.79963        1.87203
O          3.27023        6.15784        1.52837
O          4.02420        4.42161        3.21162
N          4.90646        4.31771        0.86422
C          4.97638        4.87797       -0.51442
C          3.82149        4.37018       -1.38169
C          3.87159        4.88204       -2.81500
S          5.38119        4.36114       -3.67079
C          6.59118        5.01159       -2.49108
C          6.34420        4.47422       -1.08967
H          0.87501        0.51826       -1.01849
H          0.66511       -1.02742       -0.17212
H          2.14811       -0.08879        0.04001
H          0.72458        0.18468        2.03545
H         -1.51973        0.93575        2.02385
H         -1.47893       -0.27051        0.74333
H         -1.24110        1.55596       -0.96046
H         -2.70500        1.74837       -0.00486
H         -1.31998        3.88078       -0.35672
H         -1.77008        3.52017        1.31036
H          2.94740        1.71421        1.98823
H          5.76534        4.43862        1.40366
H          4.95019        5.97291       -0.45065
H          3.79225        3.27251       -1.37214
H          2.86839        4.70534       -0.96219
H          3.01322        4.49628       -3.37444
H          3.81020        5.97534       -2.83805
H          6.55112        6.10590       -2.50268
H          7.58974        4.71733       -2.82956
H          7.13683        4.85530       -0.43207
H          6.45017        3.38061       -1.08110

--Link1--
%chk=JID_10350.chk
%mem=8GB
%nprocshared=4
# B3LYP/6-311++G(d,p) empiricaldispersion=gd3bj scf=xqc pop=npa geom=check

CID_128769226_JID_10350_Energie_neutraal

0 1

--Link1--
%chk=JID_10350.chk
%mem=8GB
%nprocshared=4
# B3LYP/6-311++G(d,p) empiricaldispersion=gd3bj scf=xqc pop=npa geom=check

CID_128769226_JID_10350_Energie_kation

1 2

--Link1--
%chk=JID_10350.chk
%mem=8GB
%nprocshared=4
# B3LYP/6-311++G(d,p) empiricaldispersion=gd3bj scf=xqc pop=npa geom=check

CID_128769226_JID_10350_Energie_anion

-1 2
