%chk=JID_5054.chk
%mem=8GB
%nprocshared=4
# opt freq B3LYP/6-31G(d) empiricaldispersion=gd3bj scf=xqc

CID_114493797_JID_5054_neutraal

0 1
C          0.94206       -0.03376        0.07418
C          0.37094        0.66736        1.29767
C          0.69566        2.17039        1.42026
C          0.54143        2.90493        0.08192
C         -0.18088        2.89859        2.49408
N          0.06264        2.49151        3.88769
C          0.10457        3.59844        4.86113
C         -1.05853        4.60431        4.85427
C         -1.60298        4.79812        6.20424
N         -2.04549        4.93694        7.26694
C         -0.61760        1.29099        4.38953
C         -2.10966        1.31867        4.79747
C         -3.07174        1.57704        3.63876
C         -2.46603       -0.03519        5.43172
O          2.06951        2.29985        1.81649
H          0.46654        0.31625       -0.84702
H          0.76396       -1.11209        0.14334
H          2.02202        0.12426       -0.00672
H         -0.71469        0.51718        1.29804
H          0.79462        0.13770        2.15757
H         -0.47063        2.79594       -0.32076
H          0.75318        3.97460        0.19648
H          1.26154        2.54521       -0.66107
H          0.07978        3.96349        2.41526
H         -1.23469        2.83181        2.21794
H          0.27746        3.19111        5.86644
H          1.02239        4.16434        4.64665
H         -0.70146        5.56582        4.46576
H         -1.86565        4.29084        4.18794
H         -0.48609        0.46418        3.69140
H         -0.04490        0.96879        5.27122
H         -2.26819        2.08284        5.56450
H         -2.84530        0.93457        2.78140
H         -4.10717        1.38116        3.93845
H         -3.03870        2.61766        3.31086
H         -1.82709       -0.24244        6.29660
H         -3.50509       -0.04442        5.77717
H         -2.34085       -0.85359        4.71363
H          2.07066        2.14171        2.78182

--Link1--
%chk=JID_5054.chk
%mem=8GB
%nprocshared=4
# B3LYP/6-311++G(d,p) empiricaldispersion=gd3bj scf=xqc pop=npa geom=check

CID_114493797_JID_5054_Energie_neutraal

0 1

--Link1--
%chk=JID_5054.chk
%mem=8GB
%nprocshared=4
# B3LYP/6-311++G(d,p) empiricaldispersion=gd3bj scf=xqc pop=npa geom=check

CID_114493797_JID_5054_Energie_kation

1 2

--Link1--
%chk=JID_5054.chk
%mem=8GB
%nprocshared=4
# B3LYP/6-311++G(d,p) empiricaldispersion=gd3bj scf=xqc pop=npa geom=check

CID_114493797_JID_5054_Energie_anion

-1 2
