%chk=JID_10908.chk
%mem=8GB
%nprocshared=4
# opt freq B3LYP/6-31G(d) empiricaldispersion=gd3bj scf=xqc

CID_62007090_JID_10908_neutraal

0 1
C          1.06206        0.05404       -0.05682
C          0.12895        1.20805        0.28491
C          0.67169        2.57015       -0.13696
S          0.07919        3.16213       -1.71040
O         -1.37121        3.10548       -1.70248
O          0.75897        4.41232       -1.99629
C          0.66107        1.98109       -2.89617
C         -0.20701        1.02180       -3.40879
C          0.27718        0.06710       -4.31033
C          1.61502        0.06303       -4.74451
C          2.45380        1.06485       -4.21990
C          1.98869        2.02236       -3.31154
N          2.11266       -0.89113       -5.64049
C          1.28185       -2.03918       -5.99859
C          3.01453       -0.40202       -6.71734
C          2.43713        0.72981       -7.56624
O          3.09073        1.70087       -7.93287
O          1.13812        0.49150       -7.90891
C          0.47438        1.54584       -8.61817
C         -0.07004        2.56922       -7.63814
H          1.19895       -0.06813       -1.13139
H          0.65256       -0.88387        0.33250
H          2.04705        0.20193        0.39784
H         -0.86352        1.01865       -0.13693
H          0.01068        1.21223        1.37568
H          0.33700        3.32541        0.58442
H          1.76582        2.59491       -0.15320
H         -1.25264        0.99424       -3.11039
H         -0.43373       -0.66449       -4.68395
H          3.50499        1.10560       -4.49411
H          2.67085        2.78198       -2.93654
H          0.43178       -1.74602       -6.62328
H          1.86936       -2.77802       -6.55495
H          0.91345       -2.55297       -5.10330
H          3.96076       -0.06213       -6.28186
H          3.27557       -1.22014       -7.39940
H          1.13704        2.00854       -9.35806
H         -0.35401        1.08848       -9.16895
H          0.73903        3.04101       -7.07145
H         -0.63006        3.34872       -8.16217
H         -0.73082        2.08948       -6.90856

--Link1--
%chk=JID_10908.chk
%mem=8GB
%nprocshared=4
# B3LYP/6-311++G(d,p) empiricaldispersion=gd3bj scf=xqc pop=npa geom=check

CID_62007090_JID_10908_Energie_neutraal

0 1

--Link1--
%chk=JID_10908.chk
%mem=8GB
%nprocshared=4
# B3LYP/6-311++G(d,p) empiricaldispersion=gd3bj scf=xqc pop=npa geom=check

CID_62007090_JID_10908_Energie_kation

1 2

--Link1--
%chk=JID_10908.chk
%mem=8GB
%nprocshared=4
# B3LYP/6-311++G(d,p) empiricaldispersion=gd3bj scf=xqc pop=npa geom=check

CID_62007090_JID_10908_Energie_anion

-1 2
