%chk=JID_6466.chk
%mem=8GB
%nprocshared=4
# opt freq B3LYP/6-31G(d) empiricaldispersion=gd3bj scf=xqc

CID_144404577_JID_6466_neutraal

0 1
# Mixture

--Link1--
%chk=JID_6466.chk
%mem=8GB
%nprocshared=4
# B3LYP/6-311++G(d,p) empiricaldispersion=gd3bj scf=xqc pop=npa geom=check

CID_144404577_JID_6466_Energie_neutraal

0 1

--Link1--
%chk=JID_6466.chk
%mem=8GB
%nprocshared=4
# B3LYP/6-311++G(d,p) empiricaldispersion=gd3bj scf=xqc pop=npa geom=check

CID_144404577_JID_6466_Energie_kation

1 2

--Link1--
%chk=JID_6466.chk
%mem=8GB
%nprocshared=4
# B3LYP/6-311++G(d,p) empiricaldispersion=gd3bj scf=xqc pop=npa geom=check

CID_144404577_JID_6466_Energie_anion

-1 2
