%chk=JID_2682.chk
%mem=8GB
%nprocshared=4
# opt freq B3LYP/6-31G(d) empiricaldispersion=gd3bj scf=xqc

CID_71444185_JID_2682_neutraal

0 1
C          0.94873       -0.07227        0.04635
C          1.09764        0.34297        1.46701
C          0.84359        1.83589        1.67894
C         -0.11430        2.49861        0.67039
C          0.44205        2.12542        3.13600
C          1.09929        1.21638        4.19890
C          0.94872        3.51782        3.47497
C          1.38333        4.71223        3.76574
N         -1.01468        2.23726        3.37176
C         -2.07864        1.40238        3.34791
O         -3.18917        1.87757        3.59550
C         -1.93506       -0.04686        3.00899
H         -0.08316        0.01321       -0.30838
H          1.23238       -1.12468       -0.06785
H          1.59919        0.50684       -0.61743
H          0.43441       -0.28640        2.05657
H          2.11351        0.10128        1.80563
H          1.82044        2.31078        1.49422
H         -1.08441        1.99348        0.63615
H         -0.28803        3.55105        0.91929
H          0.30754        2.48654       -0.34013
H          2.19209        1.22463        4.10430
H          0.86032        1.56077        5.21372
H          0.77077        0.17717        4.14590
H          1.73686        5.68913        4.00413
H         -1.33381        3.17134        3.60546
H         -1.73439       -0.16071        1.94246
H         -1.16841       -0.52338        3.61764
H         -2.87961       -0.55682        3.22641

--Link1--
%chk=JID_2682.chk
%mem=8GB
%nprocshared=4
# B3LYP/6-311++G(d,p) empiricaldispersion=gd3bj scf=xqc pop=npa geom=check

CID_71444185_JID_2682_Energie_neutraal

0 1

--Link1--
%chk=JID_2682.chk
%mem=8GB
%nprocshared=4
# B3LYP/6-311++G(d,p) empiricaldispersion=gd3bj scf=xqc pop=npa geom=check

CID_71444185_JID_2682_Energie_kation

1 2

--Link1--
%chk=JID_2682.chk
%mem=8GB
%nprocshared=4
# B3LYP/6-311++G(d,p) empiricaldispersion=gd3bj scf=xqc pop=npa geom=check

CID_71444185_JID_2682_Energie_anion

-1 2
