%chk=JID_6698.chk
%mem=8GB
%nprocshared=4
# opt freq B3LYP/6-31G(d) empiricaldispersion=gd3bj scf=xqc

CID_61571029_JID_6698_neutraal

0 1
C          1.03602       -0.02292        0.09043
C          0.44113        1.21179       -0.56657
C          1.22181        1.72828       -1.78659
N          0.60924        1.43381       -3.08943
C          0.91336        2.48660       -4.10331
C          2.37752        2.52046       -4.57373
O          2.73465        1.75108       -5.47389
N          3.28102        3.38934       -3.97244
C          2.96055        4.47116       -3.05477
C          4.68471        3.29033       -4.34537
C          0.78438        0.06414       -3.64946
C          2.12587       -0.62095       -3.34469
C         -0.38418       -0.87224       -3.25546
C         -1.68544       -0.50650       -3.94214
S         -2.49023       -1.52668       -4.98341
N         -2.20821        0.71184       -3.62937
H          0.93861       -0.91158       -0.53452
H          0.51544       -0.23057        1.03127
H          2.09565        0.12581        0.32089
H         -0.61296        1.04078       -0.81262
H          0.43790        2.00755        0.19056
H          1.20539        2.81762       -1.65917
H          2.28085        1.45166       -1.74219
H          0.29724        2.31051       -4.99595
H          0.56628        3.45914       -3.75126
H          3.38115        4.22896       -2.07438
H          3.42113        5.39319       -3.42371
H          1.89347        4.65203       -2.95112
H          4.90436        2.38091       -4.91041
H          4.94576        4.15953       -4.95639
H          5.29355        3.28768       -3.43603
H          0.72780        0.13456       -4.74488
H          2.21872       -0.91390       -2.29758
H          2.22541       -1.53344       -3.94393
H          2.98039        0.01454       -3.59034
H         -0.12259       -1.90779       -3.50889
H         -0.56301       -0.85939       -2.17698
H         -1.61434        1.39620       -3.16558
H         -3.03656        1.03829       -4.11041

--Link1--
%chk=JID_6698.chk
%mem=8GB
%nprocshared=4
# B3LYP/6-311++G(d,p) empiricaldispersion=gd3bj scf=xqc pop=npa geom=check

CID_61571029_JID_6698_Energie_neutraal

0 1

--Link1--
%chk=JID_6698.chk
%mem=8GB
%nprocshared=4
# B3LYP/6-311++G(d,p) empiricaldispersion=gd3bj scf=xqc pop=npa geom=check

CID_61571029_JID_6698_Energie_kation

1 2

--Link1--
%chk=JID_6698.chk
%mem=8GB
%nprocshared=4
# B3LYP/6-311++G(d,p) empiricaldispersion=gd3bj scf=xqc pop=npa geom=check

CID_61571029_JID_6698_Energie_anion

-1 2
