%chk=JID_6691.chk
%mem=8GB
%nprocshared=4
# opt freq B3LYP/6-31G(d) empiricaldispersion=gd3bj scf=xqc

CID_105764659_JID_6691_neutraal

0 1
C          0.95594       -0.08977        0.00106
C          1.02311        0.13598        1.50165
C          1.84148        1.36591        1.91254
C          1.37057        2.71779        1.32679
C         -0.11675        3.05231        1.60985
N         -0.37806        3.27462        3.03986
C          0.47849        4.36052        3.56330
C          1.98259        4.13628        3.20440
N          2.24756        3.82494        1.78520
C          0.36894        4.50947        5.08595
C         -1.81008        3.36081        3.33821
C         -2.48635        4.63948        2.94117
C         -2.89489        4.95945        1.52275
C         -3.96561        4.68864        2.55634
C         -4.77008        3.42342        2.39357
C         -4.76884        5.85257        3.07847
H          0.39816        0.70586       -0.50122
H          0.44857       -1.03569       -0.21418
H          1.95918       -0.13730       -0.43400
H          0.00818        0.20092        1.90872
H          1.48045       -0.74724        1.96457
H          1.83765        1.39691        3.00826
H          2.88647        1.20163        1.61699
H          1.49438        2.66599        0.23808
H         -0.37920        3.94815        1.03279
H         -0.74697        2.24228        1.22665
H          0.18029        5.31175        3.10203
H          2.40935        3.34553        3.83274
H          2.54470        5.04512        3.45306
H          2.00107        4.65315        1.24269
H          1.07059        5.26812        5.45034
H         -0.63160        4.82590        5.39538
H          0.60175        3.56723        5.59450
H         -2.30501        2.49332        2.88809
H         -1.95803        3.21969        4.41581
H         -2.12432        5.46519        3.54594
H         -2.73078        4.21929        0.74846
H         -2.75068        5.97817        1.17869
H         -4.24308        2.66307        1.80820
H         -5.01134        2.99784        3.37271
H         -5.70917        3.63449        1.87038
H         -5.20598        5.60366        4.05126
H         -4.15696        6.75191        3.20515
H         -5.58235        6.09556        2.38693

--Link1--
%chk=JID_6691.chk
%mem=8GB
%nprocshared=4
# B3LYP/6-311++G(d,p) empiricaldispersion=gd3bj scf=xqc pop=npa geom=check

CID_105764659_JID_6691_Energie_neutraal

0 1

--Link1--
%chk=JID_6691.chk
%mem=8GB
%nprocshared=4
# B3LYP/6-311++G(d,p) empiricaldispersion=gd3bj scf=xqc pop=npa geom=check

CID_105764659_JID_6691_Energie_kation

1 2

--Link1--
%chk=JID_6691.chk
%mem=8GB
%nprocshared=4
# B3LYP/6-311++G(d,p) empiricaldispersion=gd3bj scf=xqc pop=npa geom=check

CID_105764659_JID_6691_Energie_anion

-1 2
