%chk=JID_9993.chk
%mem=8GB
%nprocshared=4
# opt freq B3LYP/6-31G(d) empiricaldispersion=gd3bj scf=xqc

CID_66414072_JID_9993_neutraal

0 1
C          1.01630       -0.06563        0.07367
C          0.60674        1.38004        0.31817
C          1.04723        2.34038       -0.79038
C          0.59152        1.96050       -2.20370
C         -0.93655        1.83445       -2.39914
C         -1.69824        3.14696       -2.11393
C         -1.31352        4.32633       -2.99649
C         -1.27103        1.30159       -3.81075
N         -0.95249       -0.10952       -3.97434
C         -1.73129       -1.14502       -3.52332
C         -1.08819       -2.33559       -3.81699
C          0.12432       -1.99772       -4.49217
C          0.16761       -0.60741       -4.58930
N          1.13981        0.13559       -5.15635
C          2.15331       -0.60061       -5.65931
C          2.23936       -1.98460       -5.62783
C          1.20716       -2.71294       -5.03620
C         -1.58485       -3.65534       -3.47938
O         -2.64196       -3.86015       -2.89035
H          0.48280       -0.49832       -0.77759
H          0.78109       -0.67462        0.95253
H          2.09184       -0.14326       -0.11382
H         -0.47865        1.43244        0.45696
H          1.05392        1.71617        1.26157
H          0.70156        3.35091       -0.54486
H          2.14375        2.39095       -0.79098
H          0.99613        2.69577       -2.90973
H          1.07725        1.01464       -2.46429
H         -1.31199        1.09893       -1.67613
H         -2.77380        2.96329       -2.23185
H         -1.56002        3.43269       -1.06479
H         -1.46997        4.10455       -4.05597
H         -1.93135        5.19484       -2.74519
H         -0.26870        4.61457       -2.85105
H         -2.34558        1.39307       -4.01286
H         -0.74707        1.86535       -4.59032
H         -2.67079       -0.96272       -3.01532
H          2.94871       -0.01603       -6.11626
H          3.09811       -2.48954       -6.05709
H          1.25133       -3.79621       -4.99782
H         -0.94293       -4.49721       -3.78752

--Link1--
%chk=JID_9993.chk
%mem=8GB
%nprocshared=4
# B3LYP/6-311++G(d,p) empiricaldispersion=gd3bj scf=xqc pop=npa geom=check

CID_66414072_JID_9993_Energie_neutraal

0 1

--Link1--
%chk=JID_9993.chk
%mem=8GB
%nprocshared=4
# B3LYP/6-311++G(d,p) empiricaldispersion=gd3bj scf=xqc pop=npa geom=check

CID_66414072_JID_9993_Energie_kation

1 2

--Link1--
%chk=JID_9993.chk
%mem=8GB
%nprocshared=4
# B3LYP/6-311++G(d,p) empiricaldispersion=gd3bj scf=xqc pop=npa geom=check

CID_66414072_JID_9993_Energie_anion

-1 2
