%chk=JID_7162.chk
%mem=8GB
%nprocshared=4
# opt freq B3LYP/6-31G(d) empiricaldispersion=gd3bj scf=xqc

CID_115002566_JID_7162_neutraal

0 1
C          1.07373        0.01777       -0.06518
C          1.38059       -1.44442        0.24937
C          1.66506       -1.81386        1.73441
C          0.70325       -1.12206        2.71337
C          1.38311       -3.34064        1.94918
O          2.01426       -4.09287        2.68123
O          0.27160       -3.80449        1.34308
N          3.08609       -1.64046        2.10413
C          3.82937       -0.39015        1.92875
C          3.48395        0.74670        2.91159
C          3.45593        0.40073        4.41843
C          4.84756        0.16448        5.00514
C          2.77107        1.53553        5.18911
C          5.35785       -0.63456        1.93323
O          6.17829        0.23784        1.66306
O          5.68718       -1.90938        2.28809
C          7.08911       -2.17412        2.28949
H          0.16360        0.34946        0.44387
H          0.89873        0.13073       -1.14076
H          1.88073        0.69819        0.20464
H          0.52015       -2.01277       -0.12415
H          2.22212       -1.77496       -0.37405
H         -0.33885       -1.36886        2.47538
H          0.87305       -1.45645        3.74376
H          0.78235       -0.03431        2.69707
H          0.24073       -4.74540        1.61702
H          3.29815       -2.08995        2.99748
H          3.66567       -0.03872        0.90625
H          4.18654        1.57806        2.76145
H          2.50893        1.15495        2.62439
H          2.86154       -0.50322        4.58434
H          5.52368        0.99525        4.77734
H          4.79837        0.06153        6.09484
H          5.29029       -0.75755        4.62281
H          1.74703        1.68597        4.83081
H          2.71482        1.30256        6.25794
H          3.31474        2.47934        5.07487
H          7.50521       -2.03964        1.28615
H          7.60071       -1.53026        3.01176
H          7.23720       -3.21524        2.58894

--Link1--
%chk=JID_7162.chk
%mem=8GB
%nprocshared=4
# B3LYP/6-311++G(d,p) empiricaldispersion=gd3bj scf=xqc pop=npa geom=check

CID_115002566_JID_7162_Energie_neutraal

0 1

--Link1--
%chk=JID_7162.chk
%mem=8GB
%nprocshared=4
# B3LYP/6-311++G(d,p) empiricaldispersion=gd3bj scf=xqc pop=npa geom=check

CID_115002566_JID_7162_Energie_kation

1 2

--Link1--
%chk=JID_7162.chk
%mem=8GB
%nprocshared=4
# B3LYP/6-311++G(d,p) empiricaldispersion=gd3bj scf=xqc pop=npa geom=check

CID_115002566_JID_7162_Energie_anion

-1 2
