%chk=JID_7569.chk
%mem=8GB
%nprocshared=4
# opt freq B3LYP/6-31G(d) empiricaldispersion=gd3bj scf=xqc

CID_84691976_JID_7569_neutraal

0 1
C          1.05561       -0.03786        0.07399
O          0.59926       -1.36041       -0.20981
C          0.88972       -1.76473       -1.48649
C         -0.12752       -2.31732       -2.28728
C          0.22942       -2.78022       -3.59742
C         -0.66303       -3.36243       -4.53589
C         -0.24487       -3.78299       -5.79983
C          1.08200       -3.63598       -6.16336
C          1.97884       -3.07281       -5.25784
C          1.58557       -2.64821       -3.99619
N          2.53926       -2.13238       -3.21217
C          2.18348       -1.71740       -1.98172
C         -1.53497       -2.38436       -1.71454
C         -2.08278       -3.78919       -1.47124
C         -3.58141       -3.56044       -1.47918
C         -3.76359       -2.49033       -2.53991
N         -2.56099       -1.65534       -2.48730
H          0.50821        0.32227        0.95031
H          0.85408        0.64977       -0.75534
H          2.12117       -0.04225        0.32340
H         -1.71048       -3.50613       -4.29631
H         -0.95702       -4.22467       -6.49214
H          1.42605       -3.95823       -7.14219
H          3.02274       -2.96293       -5.54455
H          3.00839       -1.34895       -1.38049
H         -1.55298       -1.88567       -0.73812
H         -1.80904       -4.49927       -2.25771
H         -1.74017       -4.20664       -0.51856
H         -4.14053       -4.47340       -1.70324
H         -3.90881       -3.18642       -0.50147
H         -3.85147       -2.95354       -3.52892
H         -4.66514       -1.89549       -2.36673
H         -2.23082       -1.43063       -3.42295

--Link1--
%chk=JID_7569.chk
%mem=8GB
%nprocshared=4
# B3LYP/6-311++G(d,p) empiricaldispersion=gd3bj scf=xqc pop=npa geom=check

CID_84691976_JID_7569_Energie_neutraal

0 1

--Link1--
%chk=JID_7569.chk
%mem=8GB
%nprocshared=4
# B3LYP/6-311++G(d,p) empiricaldispersion=gd3bj scf=xqc pop=npa geom=check

CID_84691976_JID_7569_Energie_kation

1 2

--Link1--
%chk=JID_7569.chk
%mem=8GB
%nprocshared=4
# B3LYP/6-311++G(d,p) empiricaldispersion=gd3bj scf=xqc pop=npa geom=check

CID_84691976_JID_7569_Energie_anion

-1 2
