%chk=JID_10880.chk
%mem=8GB
%nprocshared=4
# opt freq B3LYP/6-31G(d) empiricaldispersion=gd3bj scf=xqc

CID_106515147_JID_10880_neutraal

0 1
C          0.94879       -0.04188       -0.07499
C          1.42996        0.55443        1.23338
O          1.77445        1.92721        1.03253
C          3.09562        2.23737        1.21270
C          3.41188        3.41551        1.90424
C          4.74039        3.83092        2.02242
C          5.76937        3.05976        1.47164
C          5.45519        1.88125        0.78463
C          4.12374        1.47981        0.64434
C          7.17036        3.48443        1.60400
C          7.80186        4.25210        0.69078
C          9.26825        4.58610        0.97331
S         10.23799        5.49600       -0.08128
N          9.82794        4.11475        2.15297
C          9.11010        3.39480        2.94241
N          7.82143        3.04624        2.72517
C          7.16991        4.78859       -0.56533
O          2.46721        4.26545        2.41705
C          1.66761        3.67498        3.44664
C          0.21047        4.00338        3.17763
H          0.10658        0.53389       -0.47307
H          0.63045       -1.07881        0.06474
H          1.73679       -0.01578       -0.83378
H          0.60762        0.53602        1.95742
H          2.24218       -0.04098        1.66756
H          4.96314        4.76227        2.53775
H          6.24313        1.28245        0.33174
H          3.90600        0.59141        0.05967
H          9.52526        3.00333        3.88540
H          7.30405        2.49234        3.39674
H          7.21488        5.88263       -0.58329
H          7.67829        4.39478       -1.45167
H          6.11413        4.52124       -0.66528
H          1.80156        2.59130        3.54633
H          1.97164        4.12611        4.39784
H         -0.10913        3.59681        2.21287
H         -0.43244        3.59433        3.96200
H          0.06242        5.08730        3.12987

--Link1--
%chk=JID_10880.chk
%mem=8GB
%nprocshared=4
# B3LYP/6-311++G(d,p) empiricaldispersion=gd3bj scf=xqc pop=npa geom=check

CID_106515147_JID_10880_Energie_neutraal

0 1

--Link1--
%chk=JID_10880.chk
%mem=8GB
%nprocshared=4
# B3LYP/6-311++G(d,p) empiricaldispersion=gd3bj scf=xqc pop=npa geom=check

CID_106515147_JID_10880_Energie_kation

1 2

--Link1--
%chk=JID_10880.chk
%mem=8GB
%nprocshared=4
# B3LYP/6-311++G(d,p) empiricaldispersion=gd3bj scf=xqc pop=npa geom=check

CID_106515147_JID_10880_Energie_anion

-1 2
