%chk=JID_2448.chk
%mem=8GB
%nprocshared=4
# opt freq B3LYP/6-31G(d) empiricaldispersion=gd3bj scf=xqc

CID_117800426_JID_2448_neutraal

0 1
C         -1.54800       -1.75300        0.01900
C         -0.40753       -0.77933        0.00814
C         -0.60810        0.60002        0.01364
C          0.49631        1.44497        0.00350
C          1.77595        0.89266       -0.01275
C          1.90717       -0.49392       -0.01853
N          0.83440       -1.32895       -0.00798
C          3.25046       -1.16641       -0.03853
O          3.42902       -2.37464       -0.04746
O          4.24422       -0.23373       -0.04644
C          5.55897       -0.79264       -0.06853
O         -1.86988        1.11698        0.02854
H         -1.50113       -2.38477       -0.87372
H         -1.47886       -2.39103        0.90581
H         -2.52506       -1.26214        0.03303
H          0.38289        2.52447        0.00778
H          2.64339        1.54388       -0.02111
H          5.73165       -1.40433        0.82255
H          5.71034       -1.38001       -0.97961
H          6.27688        0.03221       -0.06576
H         -1.82076        2.08717        0.02669

--Link1--
%chk=JID_2448.chk
%mem=8GB
%nprocshared=4
# B3LYP/6-311++G(d,p) empiricaldispersion=gd3bj scf=xqc pop=npa geom=check

CID_117800426_JID_2448_Energie_neutraal

0 1

--Link1--
%chk=JID_2448.chk
%mem=8GB
%nprocshared=4
# B3LYP/6-311++G(d,p) empiricaldispersion=gd3bj scf=xqc pop=npa geom=check

CID_117800426_JID_2448_Energie_kation

1 2

--Link1--
%chk=JID_2448.chk
%mem=8GB
%nprocshared=4
# B3LYP/6-311++G(d,p) empiricaldispersion=gd3bj scf=xqc pop=npa geom=check

CID_117800426_JID_2448_Energie_anion

-1 2
