%chk=JID_7878.chk
%mem=8GB
%nprocshared=4
# opt freq B3LYP/6-31G(d) empiricaldispersion=gd3bj scf=xqc

CID_62712024_JID_7878_neutraal

0 1
C         -1.76400        0.00700       -0.67600
C         -1.26412       -1.18101        0.14434
C         -0.07804       -0.91685        1.08296
C          1.24685       -1.45863        0.49733
C          1.82307       -0.63885       -0.67050
C          1.66540        0.87137       -0.43280
C          0.32379        1.29601        0.20469
C         -0.84415        1.22018       -0.78590
N          0.15071        0.48595        1.39956
C         -0.56940        1.06939        2.53303
C         -2.08073        1.20564        2.37324
O         -2.83585        0.23177        2.42730
N         -2.63522        2.44834        2.19903
C         -1.99653        3.72122        2.22476
C         -1.84181        4.53360        0.96959
C         -2.81149        4.97272        2.02401
N          1.28850       -1.04340       -1.97498
H         -2.71739        0.34214       -0.24763
H         -2.03368       -0.33627       -1.68306
H         -2.10886       -1.54892        0.74102
H         -1.03436       -2.01257       -0.53342
H         -0.24574       -1.48656        2.00685
H          1.13791       -2.51383        0.21498
H          1.99574       -1.45258        1.30318
H          2.89817       -0.85195       -0.72603
H          1.84338        1.43165       -1.35994
H          2.47137        1.18095        0.24920
H          0.45704        2.34953        0.48470
H         -0.47372        1.29969       -1.81541
H         -1.47187        2.10816       -0.65193
H         -0.40574        0.44765        3.42300
H         -0.10975        2.02703        2.78823
H         -3.64582        2.41524        2.12101
H         -1.22685        3.81536        2.98710
H         -0.92791        5.10240        0.84462
H         -2.25799        4.15714        0.04278
H         -3.86963        4.88089        1.80916
H         -2.55586        5.84459        2.61570
H          1.43345       -2.04429       -2.10459
H          0.28367       -0.90025       -2.01491

--Link1--
%chk=JID_7878.chk
%mem=8GB
%nprocshared=4
# B3LYP/6-311++G(d,p) empiricaldispersion=gd3bj scf=xqc pop=npa geom=check

CID_62712024_JID_7878_Energie_neutraal

0 1

--Link1--
%chk=JID_7878.chk
%mem=8GB
%nprocshared=4
# B3LYP/6-311++G(d,p) empiricaldispersion=gd3bj scf=xqc pop=npa geom=check

CID_62712024_JID_7878_Energie_kation

1 2

--Link1--
%chk=JID_7878.chk
%mem=8GB
%nprocshared=4
# B3LYP/6-311++G(d,p) empiricaldispersion=gd3bj scf=xqc pop=npa geom=check

CID_62712024_JID_7878_Energie_anion

-1 2
