%chk=JID_10948.chk
%mem=8GB
%nprocshared=4
# opt freq B3LYP/6-31G(d) empiricaldispersion=gd3bj scf=xqc

CID_106545983_JID_10948_neutraal

0 1
C         -2.13300       -0.01500        0.07600
N         -0.76041        0.27931       -0.30899
C          0.22175       -0.38690        0.54039
C          1.49678        0.33523        0.13840
C          1.06532        1.79286       -0.12243
C         -0.46689        1.70843       -0.17451
C          1.68191        2.33420       -1.41580
N          1.95815        3.82152       -1.38648
C          2.94837        4.15100       -2.45078
S          0.56023        4.81186       -1.39814
O         -0.02711        4.68833       -2.71624
O         -0.22684        4.57112       -0.21156
C          1.16663        6.45125       -1.23653
C          1.86610        6.83851       -0.10687
N          2.31490        8.11571        0.06155
C          2.03185        9.01519       -0.90788
C          1.32883        8.70581       -2.05908
C          0.88771        7.39836       -2.22737
C          2.21551        5.94517        0.96687
N          2.52273        5.22524        1.82583
H         -2.33922       -1.08410       -0.04450
H         -2.34685        0.25817        1.11575
H         -2.83600        0.52005       -0.57187
H          0.01747       -0.23820        1.60813
H          0.28524       -1.46053        0.33704
H          1.91004       -0.12799       -0.76682
H          2.26061        0.27375        0.92035
H          1.37378        2.40860        0.73158
H         -0.90778        2.25621       -1.01190
H         -0.87814        2.11045        0.76098
H          2.65351        1.84200       -1.55860
H          1.07894        2.08492       -2.29735
H          2.54822        3.92550       -3.44365
H          3.24430        5.20145       -2.40375
H          3.86243        3.56681       -2.30012
H          2.39399       10.02416       -0.72639
H          1.12009        9.46704       -2.80409
H          0.31828        7.13085       -3.11559

--Link1--
%chk=JID_10948.chk
%mem=8GB
%nprocshared=4
# B3LYP/6-311++G(d,p) empiricaldispersion=gd3bj scf=xqc pop=npa geom=check

CID_106545983_JID_10948_Energie_neutraal

0 1

--Link1--
%chk=JID_10948.chk
%mem=8GB
%nprocshared=4
# B3LYP/6-311++G(d,p) empiricaldispersion=gd3bj scf=xqc pop=npa geom=check

CID_106545983_JID_10948_Energie_kation

1 2

--Link1--
%chk=JID_10948.chk
%mem=8GB
%nprocshared=4
# B3LYP/6-311++G(d,p) empiricaldispersion=gd3bj scf=xqc pop=npa geom=check

CID_106545983_JID_10948_Energie_anion

-1 2
