%chk=JID_5487.chk
%mem=8GB
%nprocshared=4
# opt freq B3LYP/6-31G(d) empiricaldispersion=gd3bj scf=xqc

CID_116372901_JID_5487_neutraal

0 1
C          1.06410        0.03807        0.06664
C          0.57537       -1.13683       -0.76903
C          0.95845       -2.52005       -0.19492
C          0.50721       -2.72573        1.26986
C         -0.99452       -2.63885        1.50501
C          0.42759       -3.66868       -1.08719
N          1.11398       -3.72413       -2.38319
C          0.55962       -4.78401       -3.25506
C         -0.31036       -4.16321       -4.36882
C          0.49742       -3.40391       -5.42244
C          1.61983       -4.25677       -6.00336
C          2.51407       -4.84637       -4.91253
C          1.72309       -5.61860       -3.84515
C          1.20978       -6.89186       -4.39287
N          0.79711       -7.88730       -4.82394
H          0.55037        0.09027        1.03073
H          0.86810        0.97817       -0.45940
H          2.14138       -0.02956        0.24774
H         -0.51139       -1.06289       -0.89235
H          1.00681       -1.02354       -1.76996
H          2.05628       -2.58246       -0.18797
H          0.85458       -3.70885        1.61269
H          1.00949       -1.99645        1.91601
H         -1.53453       -3.40472        0.94108
H         -1.21319       -2.79563        2.56650
H         -1.39120       -1.65827        1.22796
H          0.58691       -4.62299       -0.57031
H         -0.65082       -3.54552       -1.24340
H          1.04652       -2.81709       -2.84142
H         -0.08174       -5.45187       -2.66295
H         -1.06110       -3.49210       -3.93291
H         -0.87426       -4.96178       -4.86793
H          0.92121       -2.49098       -4.98819
H         -0.17015       -3.08131       -6.22989
H          2.22695       -3.64882       -6.68400
H          1.18858       -5.06478       -6.60668
H          3.06748       -4.02976       -4.43161
H          3.26486       -5.49834       -5.37651
H          2.41648       -5.88182       -3.03419

--Link1--
%chk=JID_5487.chk
%mem=8GB
%nprocshared=4
# B3LYP/6-311++G(d,p) empiricaldispersion=gd3bj scf=xqc pop=npa geom=check

CID_116372901_JID_5487_Energie_neutraal

0 1

--Link1--
%chk=JID_5487.chk
%mem=8GB
%nprocshared=4
# B3LYP/6-311++G(d,p) empiricaldispersion=gd3bj scf=xqc pop=npa geom=check

CID_116372901_JID_5487_Energie_kation

1 2

--Link1--
%chk=JID_5487.chk
%mem=8GB
%nprocshared=4
# B3LYP/6-311++G(d,p) empiricaldispersion=gd3bj scf=xqc pop=npa geom=check

CID_116372901_JID_5487_Energie_anion

-1 2
