%chk=JID_2168.chk
%mem=8GB
%nprocshared=4
# opt freq B3LYP/6-31G(d) empiricaldispersion=gd3bj scf=xqc

CID_115655589_JID_2168_neutraal

0 1
C          1.01188       -0.00753       -0.09901
C          0.83511       -1.51075       -0.04976
O          1.57633       -2.13263        0.99054
C          2.99574       -2.30462        0.85420
C          3.46920       -2.62715       -0.56167
C          3.79598       -1.12824        1.46662
N          3.38860       -0.89469        2.85187
C          4.13247        0.14874        3.54747
C          3.53885        1.58677        3.55806
C          2.11242        1.60055        4.13534
C          4.43546        2.45934        4.46211
C          3.52359        2.21608        2.15766
H          0.89422        0.42948        0.89680
H          0.27350        0.44241       -0.76968
H          2.00238        0.26333       -0.47205
H         -0.21874       -1.71658        0.16926
H          1.03537       -1.97307       -1.02080
H          3.22133       -3.18848        1.46553
H          3.34847       -1.77030       -1.23229
H          4.52836       -2.90462       -0.56357
H          2.89529       -3.45963       -0.98186
H          4.86372       -1.37623        1.43323
H          3.65121       -0.22805        0.86861
H          2.37833       -0.76592        2.89695
H          4.20393       -0.18550        4.59112
H          5.17020        0.17666        3.18925
H          2.08146        1.12928        5.12393
H          1.74256        2.62662        4.24508
H          1.40561        1.07196        3.48744
H          5.46399        2.49205        4.08524
H          4.06716        3.49038        4.51286
H          4.46597        2.06873        5.48558
H          4.50850        2.15012        1.68249
H          2.79580        1.73053        1.50413
H          3.24903        3.27640        2.20442

--Link1--
%chk=JID_2168.chk
%mem=8GB
%nprocshared=4
# B3LYP/6-311++G(d,p) empiricaldispersion=gd3bj scf=xqc pop=npa geom=check

CID_115655589_JID_2168_Energie_neutraal

0 1

--Link1--
%chk=JID_2168.chk
%mem=8GB
%nprocshared=4
# B3LYP/6-311++G(d,p) empiricaldispersion=gd3bj scf=xqc pop=npa geom=check

CID_115655589_JID_2168_Energie_kation

1 2

--Link1--
%chk=JID_2168.chk
%mem=8GB
%nprocshared=4
# B3LYP/6-311++G(d,p) empiricaldispersion=gd3bj scf=xqc pop=npa geom=check

CID_115655589_JID_2168_Energie_anion

-1 2
