%chk=JID_7024.chk
%mem=8GB
%nprocshared=4
# opt freq B3LYP/6-31G(d) empiricaldispersion=gd3bj scf=xqc

CID_63648429_JID_7024_neutraal

0 1
C          0.93583       -0.01989        0.07407
C          0.42262       -0.25934       -1.33738
C          0.73347       -1.66005       -1.87633
C          0.19847       -2.82978       -1.04102
N         -1.25909       -2.79897       -0.94538
C         -1.80820       -3.94049       -0.20040
C         -1.56132       -3.96236        1.32947
C         -2.15300       -2.75177        2.05650
O         -1.91975       -5.23121        1.92377
C         -3.25619       -5.46465        2.07350
C         -3.84950       -5.22640        3.31103
C         -5.20257       -5.51549        3.50208
C         -5.96178       -6.06212        2.46263
C         -5.34116       -6.35373        1.24319
C         -3.98681       -6.06515        1.05249
S         -7.68280       -6.43007        2.75201
C         -8.43615       -5.51550        1.38037
H          0.41164       -0.64301        0.80406
H          0.77747        1.02541        0.35838
H          2.00760       -0.23083        0.14338
H         -0.65565       -0.06788       -1.37028
H          0.88562        0.47607       -2.00664
H          0.33793       -1.73503       -2.89745
H          1.82214       -1.76975       -1.96156
H          0.51265       -3.76204       -1.52567
H          0.66300       -2.80780       -0.05044
H         -1.56930       -1.92571       -0.52354
H         -2.88899       -3.93403       -0.38207
H         -1.45049       -4.87871       -0.64350
H         -0.47799       -3.91370        1.48889
H         -3.23091       -2.66688        1.88334
H         -1.99776       -2.83620        3.13704
H         -1.68714       -1.82004        1.72234
H         -3.26203       -4.82105        4.12972
H         -5.65565       -5.31706        4.47059
H         -5.89502       -6.83043        0.43890
H         -3.50845       -6.32760        0.11361
H         -8.11432       -4.47044        1.39242
H         -8.17529       -5.96693        0.41979
H         -9.52377       -5.54427        1.48857

--Link1--
%chk=JID_7024.chk
%mem=8GB
%nprocshared=4
# B3LYP/6-311++G(d,p) empiricaldispersion=gd3bj scf=xqc pop=npa geom=check

CID_63648429_JID_7024_Energie_neutraal

0 1

--Link1--
%chk=JID_7024.chk
%mem=8GB
%nprocshared=4
# B3LYP/6-311++G(d,p) empiricaldispersion=gd3bj scf=xqc pop=npa geom=check

CID_63648429_JID_7024_Energie_kation

1 2

--Link1--
%chk=JID_7024.chk
%mem=8GB
%nprocshared=4
# B3LYP/6-311++G(d,p) empiricaldispersion=gd3bj scf=xqc pop=npa geom=check

CID_63648429_JID_7024_Energie_anion

-1 2
