%chk=JID_6904.chk
%mem=8GB
%nprocshared=4
# opt freq B3LYP/6-31G(d) empiricaldispersion=gd3bj scf=xqc

CID_153853690_JID_6904_neutraal

0 1
C          1.79400        1.92600        0.03300
C          0.77749        0.82236        0.04495
C         -0.58826        1.11902        0.11582
C         -1.53520        0.09374        0.14438
C         -1.15248       -1.25752        0.10015
C          0.22170       -1.54729        0.03953
C          1.16661       -0.51873        0.01543
O          2.50063       -0.81181       -0.03908
C         -2.12532       -2.35897        0.10925
C         -2.97365       -2.57701       -0.99112
C         -3.89699       -3.62722       -1.00439
C         -4.03703       -4.40926        0.14325
C         -3.20054       -4.21609        1.24349
C         -2.24356       -3.20222        1.22247
N         -4.82167       -3.73790       -2.04960
O         -2.84337        0.49125        0.23274
H          1.31949        2.90611       -0.08365
H          2.35536        1.93087        0.97269
H          2.48875        1.79894       -0.80367
H         -0.92714        2.15151        0.15459
H          0.54297       -2.58506        0.00348
H          2.61025       -1.77612       -0.06461
H         -2.90695       -1.91373       -1.85205
H         -4.80195       -5.18003        0.19023
H         -3.30795       -4.84470        2.12370
H         -1.60800       -3.05308        2.09338
H         -5.22701       -4.66429       -2.14212
H         -4.48274       -3.37932       -2.93742
H         -3.40318       -0.29669        0.34446

--Link1--
%chk=JID_6904.chk
%mem=8GB
%nprocshared=4
# B3LYP/6-311++G(d,p) empiricaldispersion=gd3bj scf=xqc pop=npa geom=check

CID_153853690_JID_6904_Energie_neutraal

0 1

--Link1--
%chk=JID_6904.chk
%mem=8GB
%nprocshared=4
# B3LYP/6-311++G(d,p) empiricaldispersion=gd3bj scf=xqc pop=npa geom=check

CID_153853690_JID_6904_Energie_kation

1 2

--Link1--
%chk=JID_6904.chk
%mem=8GB
%nprocshared=4
# B3LYP/6-311++G(d,p) empiricaldispersion=gd3bj scf=xqc pop=npa geom=check

CID_153853690_JID_6904_Energie_anion

-1 2
