%chk=JID_6935.chk
%mem=8GB
%nprocshared=4
# opt freq B3LYP/6-31G(d) empiricaldispersion=gd3bj scf=xqc

CID_149800039_JID_6935_neutraal

0 1
C          1.07000       -0.05133        0.04965
C          0.66375       -0.95498        1.19108
S          0.83807       -0.44510        2.78063
C         -0.00681       -2.27265        0.86099
C         -1.45951       -2.04823        0.44922
O         -1.98800       -3.15281       -0.27890
C         -1.53959       -3.26280       -1.62913
C         -2.65427       -2.90011       -2.60847
C         -3.02075       -1.41134       -2.65540
C         -1.85890       -0.48738       -3.01505
O         -1.25927       -0.91876       -4.23284
C          0.09233       -0.49210       -4.39966
C          0.22915        1.02159       -4.52469
C          1.66946        1.40796       -4.79310
S          2.17332        1.85956       -6.32891
C          2.66353        1.28910       -3.66236
H          0.21641        0.56402       -0.24958
H          1.38415       -0.65541       -0.80667
H          1.90037        0.60377        0.32948
H          0.56902       -2.75133        0.06130
H          0.03497       -2.96754        1.70805
H         -2.07093       -1.93907        1.35251
H         -1.59564       -1.12584       -0.12055
H         -0.62938       -2.68573       -1.81766
H         -1.28233       -4.31714       -1.78115
H         -2.36062       -3.22829       -3.61268
H         -3.55921       -3.45989       -2.34209
H         -3.80636       -1.29237       -3.41235
H         -3.45409       -1.09885       -1.69890
H         -2.23486        0.53292       -3.14693
H         -1.11860       -0.47280       -2.21027
H          0.69754       -0.88358       -3.57319
H          0.46447       -0.97370       -5.31081
H         -0.43990        1.39560       -5.30839
H         -0.08520        1.51415       -3.59725
H          2.20719        1.64819       -2.73508
H          2.93978        0.23833       -3.53222
H          3.56969        1.87279       -3.84875

--Link1--
%chk=JID_6935.chk
%mem=8GB
%nprocshared=4
# B3LYP/6-311++G(d,p) empiricaldispersion=gd3bj scf=xqc pop=npa geom=check

CID_149800039_JID_6935_Energie_neutraal

0 1

--Link1--
%chk=JID_6935.chk
%mem=8GB
%nprocshared=4
# B3LYP/6-311++G(d,p) empiricaldispersion=gd3bj scf=xqc pop=npa geom=check

CID_149800039_JID_6935_Energie_kation

1 2

--Link1--
%chk=JID_6935.chk
%mem=8GB
%nprocshared=4
# B3LYP/6-311++G(d,p) empiricaldispersion=gd3bj scf=xqc pop=npa geom=check

CID_149800039_JID_6935_Energie_anion

-1 2
