%chk=JID_4208.chk
%mem=8GB
%nprocshared=4
# opt freq B3LYP/6-31G(d) empiricaldispersion=gd3bj scf=xqc

CID_130704463_JID_4208_neutraal

0 1
C         -2.24300       -0.04000       -0.00500
C         -0.99391        0.45291        0.59961
N         -0.62012        0.11708        1.83933
O          0.56358        0.83823        2.00918
C          0.77254        1.53957        0.85072
N         -0.14888        1.31242       -0.05028
N          1.85091        2.34158        0.84529
C          2.11862        3.40600       -0.13287
C          3.62329        3.74899        0.08204
C          2.02999        2.85899       -1.57544
C          1.20031        4.69030        0.11880
C         -0.24368        4.52123       -0.40934
C          1.09464        5.03417        1.62514
C          1.77200        5.94404       -0.59113
H         -3.10678        0.25896        0.59691
H         -2.37621        0.36555       -1.01277
H         -2.23185       -1.13189       -0.07778
H          2.29663        2.46516        1.74820
H          4.24250        2.84495        0.01765
H          3.99977        4.44538       -0.67442
H          3.80700        4.18383        1.06988
H          1.01957        2.55559       -1.85935
H          2.36150        3.60372       -2.30680
H          2.66818        1.97507       -1.69836
H         -0.78338        3.72558        0.10706
H         -0.82687        5.43700       -0.25048
H         -0.26676        4.32148       -1.48497
H          2.07743        5.19155        2.07891
H          0.51697        5.95382        1.77775
H          0.58385        4.24477        2.18677
H          2.72814        6.25729       -0.15921
H          1.91674        5.77210       -1.66211
H          1.09260        6.79922       -0.48966

--Link1--
%chk=JID_4208.chk
%mem=8GB
%nprocshared=4
# B3LYP/6-311++G(d,p) empiricaldispersion=gd3bj scf=xqc pop=npa geom=check

CID_130704463_JID_4208_Energie_neutraal

0 1

--Link1--
%chk=JID_4208.chk
%mem=8GB
%nprocshared=4
# B3LYP/6-311++G(d,p) empiricaldispersion=gd3bj scf=xqc pop=npa geom=check

CID_130704463_JID_4208_Energie_kation

1 2

--Link1--
%chk=JID_4208.chk
%mem=8GB
%nprocshared=4
# B3LYP/6-311++G(d,p) empiricaldispersion=gd3bj scf=xqc pop=npa geom=check

CID_130704463_JID_4208_Energie_anion

-1 2
