%chk=JID_5343.chk
%mem=8GB
%nprocshared=4
# opt freq B3LYP/6-31G(d) empiricaldispersion=gd3bj scf=xqc

CID_110507358_JID_5343_neutraal

0 1
C          0.95228       -0.08416        0.02529
C          0.96799       -1.06991        1.18302
O          1.51074       -0.46904        2.36797
C          2.84890       -0.73713        2.48861
C          3.23609       -1.88482        3.18387
C          4.58974       -2.19941        3.30562
C          5.55293       -1.37495        2.71928
C          5.16030       -0.21860        2.03323
C          3.80940        0.13515        1.96433
O          3.45982        1.30863        1.34376
C          2.88736        2.23314        2.27149
C          6.16537        0.61703        1.34839
N          7.43096        0.53648        1.61467
N          8.20657        1.36071        0.86133
C          8.11956        2.80170        1.10233
H          0.54195        0.88108        0.33789
H          0.34874       -0.47484       -0.79957
H          1.96046        0.09234       -0.35874
H         -0.06421       -1.34822        1.42327
H          1.48792       -1.99542        0.90264
H          2.48401       -2.53485        3.62302
H          4.89510       -3.09532        3.84086
H          6.60534       -1.64155        2.78739
H          1.82235        2.03214        2.41828
H          3.41406        2.23230        3.23300
H          2.97921        3.23430        1.83977
H          5.78229        1.31410        0.57897
H          9.18382        1.08602        0.98901
H          8.33880        3.03958        2.14735
H          8.84483        3.32133        0.46879
H          7.12810        3.19063        0.85012

--Link1--
%chk=JID_5343.chk
%mem=8GB
%nprocshared=4
# B3LYP/6-311++G(d,p) empiricaldispersion=gd3bj scf=xqc pop=npa geom=check

CID_110507358_JID_5343_Energie_neutraal

0 1

--Link1--
%chk=JID_5343.chk
%mem=8GB
%nprocshared=4
# B3LYP/6-311++G(d,p) empiricaldispersion=gd3bj scf=xqc pop=npa geom=check

CID_110507358_JID_5343_Energie_kation

1 2

--Link1--
%chk=JID_5343.chk
%mem=8GB
%nprocshared=4
# B3LYP/6-311++G(d,p) empiricaldispersion=gd3bj scf=xqc pop=npa geom=check

CID_110507358_JID_5343_Energie_anion

-1 2
