%chk=JID_9488.chk
%mem=8GB
%nprocshared=4
# opt freq B3LYP/6-31G(d) empiricaldispersion=gd3bj scf=xqc

CID_64765357_JID_9488_neutraal

0 1
C          0.91270       -0.02846       -0.03960
C          0.86827       -0.15599        1.47599
C          1.04936        1.17487        2.15733
C          2.31944        1.73561        2.29602
C          2.48635        2.98474        2.90651
C          1.39398        3.72173        3.40068
C          0.12534        3.13437        3.25611
C         -0.04769        1.88769        2.64108
C          1.57331        5.09737        4.07574
C          0.67454        5.18879        5.34451
C          3.00937        5.22456        4.69731
C          1.36258        6.34508        3.09597
C          2.32824        6.37357        1.87496
C          1.83104        5.63834        0.62990
C          0.44238        6.10138        0.19296
C         -0.55479        6.02101        1.35148
C         -0.04944        6.77695        2.58607
N         -1.09580        6.85050        3.60296
C         -0.05049        5.28267       -0.99976
H          0.12856        0.64444       -0.40321
H          0.76389       -1.00749       -0.50594
H          1.87665        0.36483       -0.37963
H         -0.08620       -0.60425        1.77769
H          1.64951       -0.84713        1.81512
H          3.19486        1.20829        1.92349
H          3.50072        3.36829        2.96666
H         -0.76840        3.64061        3.60748
H         -1.05237        1.48239        2.54347
H          0.97044        4.43534        6.08653
H          0.76867        6.17076        5.82331
H         -0.38547        5.01321        5.16325
H          3.81413        5.22737        3.95911
H          3.10794        6.15712        5.26678
H          3.21689        4.39815        5.38911
H          1.68069        7.19957        3.71703
H          2.47703        7.42665        1.59637
H          3.32490        6.00568        2.12774
H          1.82480        4.55893        0.79677
H          2.54400        5.81115       -0.18626
H          0.51442        7.14939       -0.12766
H         -0.77046        4.97717        1.59149
H         -1.50787        6.45650        1.02110
H          0.08116        7.81966        2.25840
H         -1.84397        7.45887        3.26848
H         -1.53512        5.93695        3.70449
H         -1.02946        5.63911       -1.33716
H          0.64472        5.36552       -1.84172
H         -0.14666        4.22207       -0.74284

--Link1--
%chk=JID_9488.chk
%mem=8GB
%nprocshared=4
# B3LYP/6-311++G(d,p) empiricaldispersion=gd3bj scf=xqc pop=npa geom=check

CID_64765357_JID_9488_Energie_neutraal

0 1

--Link1--
%chk=JID_9488.chk
%mem=8GB
%nprocshared=4
# B3LYP/6-311++G(d,p) empiricaldispersion=gd3bj scf=xqc pop=npa geom=check

CID_64765357_JID_9488_Energie_kation

1 2

--Link1--
%chk=JID_9488.chk
%mem=8GB
%nprocshared=4
# B3LYP/6-311++G(d,p) empiricaldispersion=gd3bj scf=xqc pop=npa geom=check

CID_64765357_JID_9488_Energie_anion

-1 2
