%chk=JID_3747.chk
%mem=8GB
%nprocshared=4
# opt freq B3LYP/6-31G(d) empiricaldispersion=gd3bj scf=xqc

CID_18785846_JID_3747_neutraal

0 1
C          0.90624       -0.00433        0.03451
C          0.21609       -0.85445       -1.01920
C          0.36158       -2.36881       -0.81998
C         -0.36043       -2.92569        0.42600
C         -0.64440       -4.44491        0.29124
C          0.58521       -5.22939        0.59130
C          1.49777       -4.69736        1.47216
C          1.32096       -3.40055        2.09537
N          0.42221       -2.57821        1.64242
N          2.05752       -2.96270        3.15966
S          2.81860       -5.72268        1.74973
C          2.19059       -6.89757        0.66619
C          0.98538       -6.50884        0.11668
H          0.39182       -0.06307        0.99754
H          0.90103        1.04699       -0.27165
H          1.94784       -0.31101        0.17153
H         -0.84568       -0.58559       -1.06564
H          0.64501       -0.60023       -1.99641
H         -0.05829       -2.84572       -1.71488
H          1.42700       -2.62935       -0.79932
H         -1.33534       -2.42915        0.50921
H         -1.41419       -4.72843        1.02074
H         -1.03584       -4.68552       -0.70326
H          2.99426       -3.34093        3.22133
H          2.00433       -1.95668        3.26596
H          2.73228       -7.81717        0.49220
H          0.42413       -7.11810       -0.58130

--Link1--
%chk=JID_3747.chk
%mem=8GB
%nprocshared=4
# B3LYP/6-311++G(d,p) empiricaldispersion=gd3bj scf=xqc pop=npa geom=check

CID_18785846_JID_3747_Energie_neutraal

0 1

--Link1--
%chk=JID_3747.chk
%mem=8GB
%nprocshared=4
# B3LYP/6-311++G(d,p) empiricaldispersion=gd3bj scf=xqc pop=npa geom=check

CID_18785846_JID_3747_Energie_kation

1 2

--Link1--
%chk=JID_3747.chk
%mem=8GB
%nprocshared=4
# B3LYP/6-311++G(d,p) empiricaldispersion=gd3bj scf=xqc pop=npa geom=check

CID_18785846_JID_3747_Energie_anion

-1 2
