%chk=JID_5422.chk
%mem=8GB
%nprocshared=4
# opt freq B3LYP/6-31G(d) empiricaldispersion=gd3bj scf=xqc

CID_81754073_JID_5422_neutraal

0 1
C          1.06266        0.02471        0.07391
C          0.27320        0.84309        1.08938
C          0.69395        2.32333        1.13228
C          0.45245        3.11262       -0.17354
C         -0.86474        2.85279       -0.89781
N          0.18952        2.98695        2.37565
C          1.12004        3.95429        2.97277
C         -1.14880        3.41166        2.42529
C         -2.14932        2.61819        3.01947
C         -3.47980        3.07709        2.99728
C         -3.76687        4.31975        2.46043
N         -2.83515        5.13712        1.94090
C         -1.56509        4.66462        1.94195
C         -1.84183        1.28716        3.66407
N         -2.60483        1.06292        4.89787
H          0.90020        0.37518       -0.94868
H          0.75530       -1.02505        0.11956
H          2.13584        0.07013        0.28517
H         -0.79755        0.74602        0.88099
H          0.44275        0.39174        2.07440
H          1.78784        2.30065        1.24725
H          0.56297        4.18752        0.00643
H          1.25536        2.85532       -0.87740
H         -1.73659        2.99911       -0.25873
H         -0.95805        3.53568       -1.74892
H         -0.90918        1.83535       -1.29655
H          1.32470        4.79339        2.29921
H          0.73477        4.34370        3.92261
H          2.07262        3.46177        3.19768
H         -4.28081        2.47569        3.41729
H         -4.78371        4.70020        2.44512
H         -0.85081        5.35269        1.49983
H         -2.07487        0.48743        2.95343
H         -0.78210        1.21390        3.92590
H         -2.29198        0.18751        5.31326
H         -2.34728        1.79482        5.55955

--Link1--
%chk=JID_5422.chk
%mem=8GB
%nprocshared=4
# B3LYP/6-311++G(d,p) empiricaldispersion=gd3bj scf=xqc pop=npa geom=check

CID_81754073_JID_5422_Energie_neutraal

0 1

--Link1--
%chk=JID_5422.chk
%mem=8GB
%nprocshared=4
# B3LYP/6-311++G(d,p) empiricaldispersion=gd3bj scf=xqc pop=npa geom=check

CID_81754073_JID_5422_Energie_kation

1 2

--Link1--
%chk=JID_5422.chk
%mem=8GB
%nprocshared=4
# B3LYP/6-311++G(d,p) empiricaldispersion=gd3bj scf=xqc pop=npa geom=check

CID_81754073_JID_5422_Energie_anion

-1 2
