%chk=JID_3232.chk
%mem=8GB
%nprocshared=4
# opt freq B3LYP/6-31G(d) empiricaldispersion=gd3bj scf=xqc

CID_77557299_JID_3232_neutraal

0 1
C          1.04719        0.08816       -0.00083
N          0.55064        0.79433        1.17032
C          0.36715        2.22772        1.00690
C          0.40527        0.08230        2.36281
O          0.75139       -1.10008        2.43877
C         -0.22205        0.82781        3.57282
C         -1.69202        1.18153        3.33303
C         -2.41728        0.74404        4.60092
C         -3.75206        0.07609        4.36384
O         -3.48202       -1.28061        3.99020
C         -2.13317       -1.60624        4.38015
C         -1.56762       -0.38730        5.11385
N         -0.18859       -0.00991        4.80622
H          0.43058        0.35485       -0.86456
H          1.01801       -0.99728        0.12345
H          2.08104        0.39712       -0.18170
H         -0.44304        2.39454        0.29107
H          0.12950        2.74030        1.93726
H          1.29283        2.65644        0.61040
H          0.37945        1.72026        3.77639
H         -1.82783        2.25764        3.17951
H         -2.09149        0.67386        2.44653
H         -2.48679        1.58432        5.30064
H         -4.34733        0.56079        3.58459
H         -4.34368        0.04988        5.28554
H         -1.58175       -1.85654        3.46934
H         -2.14461       -2.49537        5.01829
H         -1.69891       -0.52400        6.19371
H          0.18084        0.55872        5.56667

--Link1--
%chk=JID_3232.chk
%mem=8GB
%nprocshared=4
# B3LYP/6-311++G(d,p) empiricaldispersion=gd3bj scf=xqc pop=npa geom=check

CID_77557299_JID_3232_Energie_neutraal

0 1

--Link1--
%chk=JID_3232.chk
%mem=8GB
%nprocshared=4
# B3LYP/6-311++G(d,p) empiricaldispersion=gd3bj scf=xqc pop=npa geom=check

CID_77557299_JID_3232_Energie_kation

1 2

--Link1--
%chk=JID_3232.chk
%mem=8GB
%nprocshared=4
# B3LYP/6-311++G(d,p) empiricaldispersion=gd3bj scf=xqc pop=npa geom=check

CID_77557299_JID_3232_Energie_anion

-1 2
