%chk=JID_8215.chk
%mem=8GB
%nprocshared=4
# opt freq B3LYP/6-31G(d) empiricaldispersion=gd3bj scf=xqc

CID_115680516_JID_8215_neutraal

0 1
C          1.78700        0.09100       -0.05500
C          0.86378        1.06449       -0.77744
C         -0.12788        0.37173       -1.71017
C         -1.32718       -0.26476       -1.01474
C         -1.02782       -1.36353        0.02136
C         -0.30624       -0.78688        1.25199
C          1.20722       -0.60741        1.17273
C         -0.34615       -2.58880       -0.61702
C         -0.35138       -3.83383        0.26432
O         -0.93790       -3.85320        1.34541
N          0.33963       -4.94692       -0.21294
C          0.83385       -5.09120       -1.57655
C         -0.20247       -5.72110       -2.49795
C         -0.49578       -7.16591       -2.12344
N         -1.30901       -7.31040       -0.93634
C         -0.91210       -7.06183        0.35098
O         -1.45952       -7.69652        1.25465
C          0.29960       -6.16075        0.60909
H          2.68215        0.63801        0.26932
H          2.15692       -0.65786       -0.76553
H          0.34840        1.72255       -0.06875
H          1.49382        1.71486       -1.39806
H          0.38857       -0.37078       -2.32975
H         -0.51602        1.12548       -2.40750
H         -1.98371       -0.68451       -1.78835
H         -1.91342        0.52826       -0.53158
H         -2.01477       -1.69186        0.37948
H         -0.50938       -1.43489        2.11422
H         -0.76410        0.17532        1.51733
H          1.69695       -1.58375        1.27931
H          1.51135       -0.03930        2.06225
H         -0.88364       -2.84615       -1.53757
H          0.68630       -2.35350       -0.88206
H          1.11880       -4.11725       -1.98146
H          1.75182       -5.69032       -1.54947
H          0.19334       -5.70109       -3.52034
H         -1.12868       -5.13446       -2.49538
H          0.42986       -7.73422       -1.97897
H         -1.05531       -7.64011       -2.93709
H         -2.05920       -7.99225       -0.96277
H          1.21318       -6.74017        0.43701
H          0.28375       -5.87924        1.66812

--Link1--
%chk=JID_8215.chk
%mem=8GB
%nprocshared=4
# B3LYP/6-311++G(d,p) empiricaldispersion=gd3bj scf=xqc pop=npa geom=check

CID_115680516_JID_8215_Energie_neutraal

0 1

--Link1--
%chk=JID_8215.chk
%mem=8GB
%nprocshared=4
# B3LYP/6-311++G(d,p) empiricaldispersion=gd3bj scf=xqc pop=npa geom=check

CID_115680516_JID_8215_Energie_kation

1 2

--Link1--
%chk=JID_8215.chk
%mem=8GB
%nprocshared=4
# B3LYP/6-311++G(d,p) empiricaldispersion=gd3bj scf=xqc pop=npa geom=check

CID_115680516_JID_8215_Energie_anion

-1 2
