%chk=JID_7995.chk
%mem=8GB
%nprocshared=4
# opt freq B3LYP/6-31G(d) empiricaldispersion=gd3bj scf=xqc

CID_20781559_JID_7995_neutraal

0 1
C          1.63500        2.53100        0.05900
C          1.30917        1.07315        0.18429
C          2.23088        0.04156        0.25551
S          1.48804       -1.49066        0.35783
C         -0.09120       -0.82048        0.33798
C         -1.30815       -1.52663        0.40419
C         -2.50720       -0.81349        0.37122
C         -2.50014        0.56940        0.27338
C         -1.28939        1.26533        0.20706
C         -0.05162        0.57256        0.24052
C          3.69193        0.09385        0.23801
C          4.37414        0.03097       -0.98492
C          5.76108        0.08378       -1.01310
C          6.45478        0.20018        0.18051
C          5.75099        0.26403        1.37673
N          4.39740        0.21679        1.39797
C          3.70473        0.28957        2.70150
H          1.21381        2.93453       -0.86755
H          1.21579        3.08608        0.90458
H          2.71383        2.71209        0.04362
H         -1.32092       -2.61130        0.47517
H         -3.45388       -1.34837        0.41831
H         -3.44074        1.11579        0.24397
H         -1.31122        2.34995        0.12561
H          3.82085       -0.06471       -1.91859
H          6.29545        0.03062       -1.96077
H          7.54250        0.23941        0.18028
H          6.27101        0.35338        2.32702
H          3.00851        1.13128        2.67984
H          3.19326       -0.66019        2.87283
H          4.43241        0.45506        3.50035

--Link1--
%chk=JID_7995.chk
%mem=8GB
%nprocshared=4
# B3LYP/6-311++G(d,p) empiricaldispersion=gd3bj scf=xqc pop=npa geom=check

CID_20781559_JID_7995_Energie_neutraal

0 1

--Link1--
%chk=JID_7995.chk
%mem=8GB
%nprocshared=4
# B3LYP/6-311++G(d,p) empiricaldispersion=gd3bj scf=xqc pop=npa geom=check

CID_20781559_JID_7995_Energie_kation

1 2

--Link1--
%chk=JID_7995.chk
%mem=8GB
%nprocshared=4
# B3LYP/6-311++G(d,p) empiricaldispersion=gd3bj scf=xqc pop=npa geom=check

CID_20781559_JID_7995_Energie_anion

-1 2
