%chk=JID_4233.chk
%mem=8GB
%nprocshared=4
# opt freq B3LYP/6-31G(d) empiricaldispersion=gd3bj scf=xqc

CID_57632767_JID_4233_neutraal

0 1
C          0.95197        0.02708       -0.08343
C          0.89141        0.13364        1.43936
N          2.03231       -0.47963        2.12288
C          2.08207       -0.21323        3.56078
C          0.98037       -0.83116        4.41215
C          2.39245       -1.84398        1.71152
C          1.26772       -2.87819        1.70633
S          1.69413       -4.26002        0.65353
O          1.93513       -3.73885       -0.67929
O          2.72895       -5.01592        1.33662
C          0.18874       -5.29955        0.56705
C         -0.14267       -5.86905        1.95136
C         -1.00161       -4.48499        0.03903
C          0.47063       -6.45575       -0.40735
H          0.14087        0.61454       -0.52686
H          0.83839       -1.00069       -0.43768
H          1.89741        0.42447       -0.46768
H          0.86424        1.20201        1.68816
H         -0.05784       -0.29131        1.78385
H          3.05483       -0.53263        3.95517
H          2.06272        0.87390        3.71266
H          1.05338       -1.92051        4.43928
H          1.07199       -0.47624        5.44454
H         -0.01693       -0.55308        4.05982
H          2.83426       -1.76474        0.71092
H          3.21949       -2.21493        2.33130
H          1.08589       -3.26963        2.70857
H          0.34206       -2.46178        1.31185
H         -0.36148       -5.07505        2.67225
H         -1.02120       -6.52241        1.90628
H          0.68897       -6.45828        2.35224
H         -0.75874       -3.97810       -0.90109
H         -1.86814       -5.13024       -0.14490
H         -1.32168       -3.72090        0.75406
H          0.69739       -6.08192       -1.41235
H          1.32824       -7.05310       -0.07933
H         -0.39316       -7.12464       -0.48929

--Link1--
%chk=JID_4233.chk
%mem=8GB
%nprocshared=4
# B3LYP/6-311++G(d,p) empiricaldispersion=gd3bj scf=xqc pop=npa geom=check

CID_57632767_JID_4233_Energie_neutraal

0 1

--Link1--
%chk=JID_4233.chk
%mem=8GB
%nprocshared=4
# B3LYP/6-311++G(d,p) empiricaldispersion=gd3bj scf=xqc pop=npa geom=check

CID_57632767_JID_4233_Energie_kation

1 2

--Link1--
%chk=JID_4233.chk
%mem=8GB
%nprocshared=4
# B3LYP/6-311++G(d,p) empiricaldispersion=gd3bj scf=xqc pop=npa geom=check

CID_57632767_JID_4233_Energie_anion

-1 2
