%chk=JID_6725.chk
%mem=8GB
%nprocshared=4
# opt freq B3LYP/6-31G(d) empiricaldispersion=gd3bj scf=xqc

CID_134011118_JID_6725_neutraal

0 1
C          0.93611        0.06439       -0.04209
C          0.29011       -1.16415        0.60050
C          0.72064       -1.25987        2.06771
C         -1.25376       -1.17414        0.50728
N         -1.71623       -1.17964       -0.88768
C         -2.85121       -2.09604       -1.10651
C         -4.20793       -1.59975       -0.55550
N         -4.60226       -0.22307       -0.90060
C         -3.45386        0.69434       -0.83535
C         -2.10191        0.16076       -1.36781
C         -5.47545       -0.11022       -2.08252
C         -6.26940        1.18836       -2.08902
C         -6.55173        1.39346       -3.55334
O         -5.42538        0.85468       -4.24096
C         -4.82065       -0.09003       -3.45385
O         -3.94622       -0.83176       -3.86887
H          0.53044        0.99201        0.37500
H          0.79122        0.07057       -1.12653
H          2.01812        0.06680        0.13107
H          0.67477       -2.05461        0.08538
H          0.37351       -0.39354        2.64094
H          0.31437       -2.16278        2.53565
H          1.81187       -1.30635        2.15119
H         -1.59296       -2.08504        1.01913
H         -1.67550       -0.34090        1.08205
H         -2.94250       -2.27739       -2.18230
H         -2.62541       -3.08191       -0.67988
H         -4.15731       -1.64545        0.54073
H         -4.99333       -2.31462       -0.83005
H         -3.32288        0.95342        0.22323
H         -3.66228        1.64934       -1.32832
H         -1.33019        0.89950       -1.13096
H         -2.12934        0.13240       -2.46213
H         -6.20149       -0.93418       -2.09421
H         -7.18267        1.13547       -1.48825
H         -5.68968        2.03992       -1.71843
H         -7.45026        0.86240       -3.88386
H         -6.65744        2.45377       -3.80127

--Link1--
%chk=JID_6725.chk
%mem=8GB
%nprocshared=4
# B3LYP/6-311++G(d,p) empiricaldispersion=gd3bj scf=xqc pop=npa geom=check

CID_134011118_JID_6725_Energie_neutraal

0 1

--Link1--
%chk=JID_6725.chk
%mem=8GB
%nprocshared=4
# B3LYP/6-311++G(d,p) empiricaldispersion=gd3bj scf=xqc pop=npa geom=check

CID_134011118_JID_6725_Energie_kation

1 2

--Link1--
%chk=JID_6725.chk
%mem=8GB
%nprocshared=4
# B3LYP/6-311++G(d,p) empiricaldispersion=gd3bj scf=xqc pop=npa geom=check

CID_134011118_JID_6725_Energie_anion

-1 2
