%chk=JID_9766.chk
%mem=8GB
%nprocshared=4
# opt freq B3LYP/6-31G(d) empiricaldispersion=gd3bj scf=xqc

CID_116415159_JID_9766_neutraal

0 1
C          0.95477        0.07867       -0.04201
C          0.23573       -0.70093        1.05143
C          0.38577       -0.12325        2.48707
C         -0.12703        1.37552        2.62109
C         -1.60791        1.61288        2.27231
C         -2.65754        0.87541        2.81445
C         -3.96958        1.15931        2.43476
C         -4.21464        2.17565        1.52440
C         -3.13032        2.86900        1.02567
N         -1.85095        2.60975        1.37308
N          0.45738        2.22916        3.71323
C          0.22882        3.65660        3.42857
C          0.31065        1.95296        5.15076
C         -1.10104        1.63365        5.64438
C          1.33990        0.93567        5.69248
C          2.80922        1.32066        5.49492
S          3.44236        2.43619        6.79757
C          3.34714        4.01924        5.93038
N         -0.20041       -1.14377        3.37813
H          0.45843        1.02941       -0.25559
H          0.95649       -0.49958       -0.97198
H          1.99473        0.27778        0.23424
H         -0.82408       -0.78853        0.78115
H          0.64198       -1.72195        1.04002
H          1.46091       -0.10378        2.70979
H          0.38028        1.82229        1.75492
H         -2.49222        0.08731        3.53479
H         -4.79443        0.58933        2.85369
H         -5.22316        2.42200        1.21355
H         -3.26112        3.67715        0.31212
H         -0.80345        3.95959        3.63246
H          0.88977        4.28432        4.03483
H          0.47307        3.90636        2.38968
H          0.56230        2.88024        5.68210
H         -1.41795        0.62236        5.39348
H         -1.13973        1.71028        6.73767
H         -1.83295        2.34860        5.25570
H          1.14773        0.75310        6.75858
H          1.19916       -0.03294        5.21407
H          3.40878        0.40746        5.58376
H          3.00885        1.72411        4.49798
H          3.78637        3.94794        4.93231
H          2.31231        4.35684        5.86183
H          3.90713        4.76721        6.49859
H         -0.40636       -0.74689        4.28721
H         -1.07522       -1.49436        2.99397

--Link1--
%chk=JID_9766.chk
%mem=8GB
%nprocshared=4
# B3LYP/6-311++G(d,p) empiricaldispersion=gd3bj scf=xqc pop=npa geom=check

CID_116415159_JID_9766_Energie_neutraal

0 1

--Link1--
%chk=JID_9766.chk
%mem=8GB
%nprocshared=4
# B3LYP/6-311++G(d,p) empiricaldispersion=gd3bj scf=xqc pop=npa geom=check

CID_116415159_JID_9766_Energie_kation

1 2

--Link1--
%chk=JID_9766.chk
%mem=8GB
%nprocshared=4
# B3LYP/6-311++G(d,p) empiricaldispersion=gd3bj scf=xqc pop=npa geom=check

CID_116415159_JID_9766_Energie_anion

-1 2
