%chk=JID_9730.chk
%mem=8GB
%nprocshared=4
# opt freq B3LYP/6-31G(d) empiricaldispersion=gd3bj scf=xqc

CID_128565686_JID_9730_neutraal

0 1
C          0.94299       -0.08215        0.00098
C          0.39570        1.09076       -0.84565
C          0.76516        2.40326       -0.11408
C          0.51784        3.71964       -0.86281
C          1.43480        3.90351       -2.07069
C          0.89991        3.27510       -3.35153
N          0.41298        1.90963       -3.20024
C          1.04364        1.00164       -2.25079
C         -0.31878        1.41571       -4.23270
N         -0.71676        2.04417       -5.32191
C         -1.44018        1.10354       -6.00642
C         -2.11497        1.16776       -7.23214
C         -2.78168        0.01675       -7.68037
C         -2.77494       -1.16426       -6.92613
C         -2.10394       -1.24226       -5.69930
C         -1.45732       -0.08134       -5.29377
O         -0.73897        0.11169       -4.15328
O          0.79022        4.78606        0.05850
C         -1.13680        0.93473       -0.91208
H          0.67367       -1.04914       -0.43907
H          0.54058       -0.05832        1.02017
H          2.03588       -0.04260        0.07274
H          0.22736        2.44575        0.84407
H          1.82601        2.37000        0.17447
H         -0.53388        3.82186       -1.14731
H          2.43554        3.51378       -1.84451
H          1.58812        4.97473       -2.25814
H          1.68927        3.30210       -4.11366
H          0.08589        3.91786       -3.71367
H          2.11847        1.21699       -2.18465
H          0.99989       -0.03716       -2.60405
H         -2.11864        2.08415       -7.81132
H         -3.31323        0.04490       -8.62964
H         -3.30289       -2.03962       -7.30053
H         -2.08781       -2.14410       -5.10108
H          1.71753        4.71160        0.34145
H         -1.41573       -0.00442       -1.40287
H         -1.57385        0.92082        0.09316
H         -1.61462        1.75299       -1.45941

--Link1--
%chk=JID_9730.chk
%mem=8GB
%nprocshared=4
# B3LYP/6-311++G(d,p) empiricaldispersion=gd3bj scf=xqc pop=npa geom=check

CID_128565686_JID_9730_Energie_neutraal

0 1

--Link1--
%chk=JID_9730.chk
%mem=8GB
%nprocshared=4
# B3LYP/6-311++G(d,p) empiricaldispersion=gd3bj scf=xqc pop=npa geom=check

CID_128565686_JID_9730_Energie_kation

1 2

--Link1--
%chk=JID_9730.chk
%mem=8GB
%nprocshared=4
# B3LYP/6-311++G(d,p) empiricaldispersion=gd3bj scf=xqc pop=npa geom=check

CID_128565686_JID_9730_Energie_anion

-1 2
