%chk=JID_9395.chk
%mem=8GB
%nprocshared=4
# opt freq B3LYP/6-31G(d) empiricaldispersion=gd3bj scf=xqc

CID_146995917_JID_9395_neutraal

0 1
C          0.91718        0.05039       -0.02453
C          0.51382        0.49557        1.38686
C          1.14024        1.86964        1.68360
C          0.60232        2.44947        3.01192
C          1.41208        3.71684        3.42295
N          1.14827        4.89383        2.57392
C         -0.30472        5.16301        2.47572
C         -1.08370        3.88328        2.07615
O         -0.80212        2.76886        2.93127
C         -0.85082        5.72312        3.80361
C         -0.49386        6.22653        1.38226
C          0.67859        1.40544        4.10326
C          0.83560        0.08043        3.89683
C          0.90185       -0.53768        2.49569
C         -0.05266       -1.67761        2.42992
C         -0.83730       -2.58682        2.37100
O          2.28962       -0.89796        2.32748
C          2.57611       -2.21575        1.88937
C          0.99238       -0.84921        5.07434
H          0.55805        0.76985       -0.76882
H          0.48067       -0.92136       -0.27502
H          2.00425       -0.02000       -0.13377
H         -0.57915        0.62045        1.37967
H          0.93837        2.54714        0.84735
H          2.23316        1.76689        1.73375
H          2.48683        3.49996        3.38962
H          1.19136        3.98580        4.46345
H          1.62635        5.70411        2.96677
H         -2.16271        4.06671        2.14184
H         -0.89016        3.59985        1.03583
H         -0.28397        6.60364        4.12763
H         -1.89735        6.03097        3.69382
H         -0.81736        4.98589        4.61232
H         -0.10419        5.88110        0.41728
H         -1.55492        6.46363        1.24289
H          0.02353        7.15946        1.63543
H          0.59327        1.77814        5.12143
H         -1.53868       -3.38743        2.32298
H          2.29004       -2.94967        2.64856
H          2.09235       -2.43466        0.93329
H          3.65736       -2.29314        1.74298
H          1.09091       -0.30109        6.01792
H          0.12542       -1.50950        5.17207
H          1.89205       -1.46312        4.96488

--Link1--
%chk=JID_9395.chk
%mem=8GB
%nprocshared=4
# B3LYP/6-311++G(d,p) empiricaldispersion=gd3bj scf=xqc pop=npa geom=check

CID_146995917_JID_9395_Energie_neutraal

0 1

--Link1--
%chk=JID_9395.chk
%mem=8GB
%nprocshared=4
# B3LYP/6-311++G(d,p) empiricaldispersion=gd3bj scf=xqc pop=npa geom=check

CID_146995917_JID_9395_Energie_kation

1 2

--Link1--
%chk=JID_9395.chk
%mem=8GB
%nprocshared=4
# B3LYP/6-311++G(d,p) empiricaldispersion=gd3bj scf=xqc pop=npa geom=check

CID_146995917_JID_9395_Energie_anion

-1 2
