%chk=JID_4410.chk
%mem=8GB
%nprocshared=4
# opt freq B3LYP/6-31G(d) empiricaldispersion=gd3bj scf=xqc

CID_68421525_JID_4410_neutraal

0 1
C          0.94391        0.08217        0.01009
N         -0.09634       -0.04691        1.01584
C         -0.21607        1.03804        1.97326
C         -1.57545        1.04230        2.63152
C         -1.77081       -0.31740        3.25772
N         -1.58660       -1.38404        2.28245
C         -0.68392       -1.29795        1.21131
O         -0.42974       -2.24344        0.46564
N         -2.23345       -2.60447        2.61658
C         -3.28180       -3.02427        1.67993
C         -2.93894       -4.21455        0.76129
N         -2.33383       -5.34465        1.48728
C         -1.10481       -4.85155        2.13229
C         -1.35628       -3.67681        3.10098
H          0.83775        1.04689       -0.49467
H          0.88857       -0.71042       -0.74071
H          1.91743        0.03273        0.50695
H          0.58380        0.92131        2.71392
H         -0.06250        1.98917        1.45152
H         -2.35617        1.22846        1.88381
H         -1.63911        1.83112        3.38790
H         -2.77875       -0.38716        3.68336
H         -1.04731       -0.48065        4.06576
H         -4.14511       -3.31844        2.29145
H         -3.63155       -2.18132        1.07051
H         -2.27509       -3.89923       -0.05098
H         -3.85934       -4.56796        0.28243
H         -2.98174       -5.63526        2.21855
H         -0.37439       -4.57296        1.36533
H         -0.65518       -5.68004        2.69170
H         -0.39511       -3.27865        3.44994
H         -1.84064       -4.08977        3.99581

--Link1--
%chk=JID_4410.chk
%mem=8GB
%nprocshared=4
# B3LYP/6-311++G(d,p) empiricaldispersion=gd3bj scf=xqc pop=npa geom=check

CID_68421525_JID_4410_Energie_neutraal

0 1

--Link1--
%chk=JID_4410.chk
%mem=8GB
%nprocshared=4
# B3LYP/6-311++G(d,p) empiricaldispersion=gd3bj scf=xqc pop=npa geom=check

CID_68421525_JID_4410_Energie_kation

1 2

--Link1--
%chk=JID_4410.chk
%mem=8GB
%nprocshared=4
# B3LYP/6-311++G(d,p) empiricaldispersion=gd3bj scf=xqc pop=npa geom=check

CID_68421525_JID_4410_Energie_anion

-1 2
