%chk=JID_6381.chk
%mem=8GB
%nprocshared=4
# opt freq B3LYP/6-31G(d) empiricaldispersion=gd3bj scf=xqc

CID_21617767_JID_6381_neutraal

0 1
C          0.95535        0.08943        0.00305
C          0.56794        0.25644       -1.45542
C          1.17981       -0.80248       -2.37555
C          0.80763       -2.25649       -2.06242
C         -0.69037       -2.55654       -1.92925
C         -1.58359       -2.07546       -3.07875
N         -1.50589       -2.92136       -4.28295
C         -2.47976       -3.87990       -4.60818
O         -2.29145       -4.84125       -5.35036
N         -3.71328       -3.71394       -4.03547
C         -4.60670       -2.81209       -4.53307
O         -5.78864       -3.10165       -4.68124
N         -4.15639       -1.57662       -4.85236
N         -0.29565       -2.82449       -4.96562
C         -0.11439       -3.42293       -5.96330
O          0.11024       -3.97153       -6.97797
H          0.56344       -0.84148        0.42251
H          0.55143        0.91613        0.59632
H          2.04357        0.08945        0.12160
H         -0.52369        0.25774       -1.54139
H          0.90403        1.24368       -1.79497
H          0.89678       -0.57026       -3.40899
H          2.27319       -0.71352       -2.34088
H          1.24327       -2.89998       -2.83538
H          1.29948       -2.55634       -1.12841
H         -0.81962       -3.63740       -1.79088
H         -1.04950       -2.08849       -1.00456
H         -2.60688       -2.06640       -2.69435
H         -1.35823       -1.04786       -3.37892
H         -4.20530       -4.59974       -4.06555
H         -3.22482       -1.47169       -5.23035
H         -4.85547       -0.99397       -5.29966

--Link1--
%chk=JID_6381.chk
%mem=8GB
%nprocshared=4
# B3LYP/6-311++G(d,p) empiricaldispersion=gd3bj scf=xqc pop=npa geom=check

CID_21617767_JID_6381_Energie_neutraal

0 1

--Link1--
%chk=JID_6381.chk
%mem=8GB
%nprocshared=4
# B3LYP/6-311++G(d,p) empiricaldispersion=gd3bj scf=xqc pop=npa geom=check

CID_21617767_JID_6381_Energie_kation

1 2

--Link1--
%chk=JID_6381.chk
%mem=8GB
%nprocshared=4
# B3LYP/6-311++G(d,p) empiricaldispersion=gd3bj scf=xqc pop=npa geom=check

CID_21617767_JID_6381_Energie_anion

-1 2
