%chk=JID_8915.chk
%mem=8GB
%nprocshared=4
# opt freq B3LYP/6-31G(d) empiricaldispersion=gd3bj scf=xqc

CID_89397036_JID_8915_neutraal

0 1
C          1.04599        0.08511        0.02534
C          0.59044       -1.19458       -0.61812
C          1.16766       -2.40870       -0.19973
C          0.76595       -3.63220       -0.74162
C         -0.16026       -3.63005       -1.79278
C         -0.72653       -2.42691       -2.23422
C         -0.41036       -1.20778       -1.60565
N         -0.93460       -0.00496       -2.12598
O         -1.65341       -2.37860       -3.25699
C         -1.59259       -3.56687       -4.04846
C         -1.66573       -4.81152       -3.16489
O         -0.49880       -4.85786       -2.32099
C         -2.93736       -4.91927       -2.29831
C         -4.23615       -4.79040       -3.09058
C         -2.92655       -6.23644       -1.56218
O         -2.89247       -6.38300       -0.35125
O         -2.98558       -7.31119       -2.37194
N          1.44033       -4.81341       -0.37797
H          0.27123        0.46100        0.70098
H          1.26858        0.84409       -0.73166
H          1.96214       -0.06220        0.60729
H          1.94827       -2.39762        0.55776
H         -1.78228       -0.18348       -2.66213
H         -1.05382        0.72318       -1.43154
H         -0.66128       -3.55054       -4.63053
H         -2.41925       -3.53747       -4.76494
H         -1.59432       -5.68691       -3.82205
H         -2.93590       -4.14534       -1.52041
H         -4.25298       -5.47334       -3.94693
H         -5.10186       -5.02837       -2.46239
H         -4.37098       -3.77077       -3.46457
H         -2.97289       -8.07028       -1.75042
H          1.72899       -4.83299        0.59389
H          0.89903       -5.63449       -0.64441

--Link1--
%chk=JID_8915.chk
%mem=8GB
%nprocshared=4
# B3LYP/6-311++G(d,p) empiricaldispersion=gd3bj scf=xqc pop=npa geom=check

CID_89397036_JID_8915_Energie_neutraal

0 1

--Link1--
%chk=JID_8915.chk
%mem=8GB
%nprocshared=4
# B3LYP/6-311++G(d,p) empiricaldispersion=gd3bj scf=xqc pop=npa geom=check

CID_89397036_JID_8915_Energie_kation

1 2

--Link1--
%chk=JID_8915.chk
%mem=8GB
%nprocshared=4
# B3LYP/6-311++G(d,p) empiricaldispersion=gd3bj scf=xqc pop=npa geom=check

CID_89397036_JID_8915_Energie_anion

-1 2
