%chk=JID_5351.chk
%mem=8GB
%nprocshared=4
# opt freq B3LYP/6-31G(d) empiricaldispersion=gd3bj scf=xqc

CID_68918627_JID_5351_neutraal

0 1
C         -0.78000       -1.38100        0.03200
C         -1.29477        0.02489        0.02342
O         -2.45508        0.34850        0.21366
N         -0.27972        0.88300       -0.21363
C          0.93332        0.27589       -0.20433
O          1.99302        0.88582       -0.22348
C          0.74812       -1.22708       -0.11376
C          1.43912       -1.73943        1.14197
O          2.19162       -2.69241        1.25937
O          1.09291       -1.04850        2.25538
N          1.20803       -1.93254       -1.32745
C          1.72258       -1.37132       -2.47191
C          1.93734       -2.37391       -3.39256
C          1.53296       -3.58757       -2.79848
C          1.08135       -3.29135       -1.53269
H         -1.07544       -1.86389        0.96930
H         -1.24778       -1.91421       -0.80287
H         -0.39473        1.88510       -0.20874
H          1.61953       -1.46789        2.97306
H          1.91842       -0.30987       -2.56158
H          2.34797       -2.24065       -4.38542
H          1.57073       -4.57456       -3.24152
H          0.69637       -3.94554       -0.75982

--Link1--
%chk=JID_5351.chk
%mem=8GB
%nprocshared=4
# B3LYP/6-311++G(d,p) empiricaldispersion=gd3bj scf=xqc pop=npa geom=check

CID_68918627_JID_5351_Energie_neutraal

0 1

--Link1--
%chk=JID_5351.chk
%mem=8GB
%nprocshared=4
# B3LYP/6-311++G(d,p) empiricaldispersion=gd3bj scf=xqc pop=npa geom=check

CID_68918627_JID_5351_Energie_kation

1 2

--Link1--
%chk=JID_5351.chk
%mem=8GB
%nprocshared=4
# B3LYP/6-311++G(d,p) empiricaldispersion=gd3bj scf=xqc pop=npa geom=check

CID_68918627_JID_5351_Energie_anion

-1 2
