%chk=JID_4037.chk
%mem=8GB
%nprocshared=4
# opt freq B3LYP/6-31G(d) empiricaldispersion=gd3bj scf=xqc

CID_103984678_JID_4037_neutraal

0 1
C          1.01199        0.08019       -0.05853
O          0.06800       -0.96799       -0.17296
C          0.39850       -2.08635        0.65453
C          0.04345       -3.39560       -0.09006
C          0.54265       -4.60260        0.73821
C          0.50165       -5.89775       -0.06269
O          1.28189       -5.77464       -1.24944
C          0.78635       -4.76549       -2.12512
C          0.79968       -3.40154       -1.44787
C         -1.49247       -3.44402       -0.36129
N         -2.29336       -3.51803        0.86594
C         -3.73237       -3.24264        0.74455
C         -4.18180       -1.85466        0.37438
C         -4.45582       -3.00614       -0.55052
H          0.65323        0.93418       -0.63931
H          1.97733       -0.23447       -0.46692
H          1.12610        0.38996        0.98495
H          1.46889       -2.07835        0.90021
H         -0.15161       -1.99271        1.59777
H          1.58767       -4.42131        1.02524
H         -0.01727       -4.71601        1.67223
H          0.93411       -6.70955        0.53087
H         -0.52117       -6.19209       -0.32098
H         -0.21389       -5.04106       -2.47495
H          1.43897       -4.74102       -3.00414
H          0.39192       -2.64899       -2.13322
H          1.84807       -3.12891       -1.26338
H         -1.75915       -2.54865       -0.93470
H         -1.75085       -4.30226       -0.99031
H         -2.15852       -4.43218        1.29643
H         -4.31741       -3.71403        1.53424
H         -5.01270       -1.43032        0.92520
H         -3.43141       -1.12827        0.08377
H         -3.92346       -3.03446       -1.49175
H         -5.47929       -3.35659       -0.62657

--Link1--
%chk=JID_4037.chk
%mem=8GB
%nprocshared=4
# B3LYP/6-311++G(d,p) empiricaldispersion=gd3bj scf=xqc pop=npa geom=check

CID_103984678_JID_4037_Energie_neutraal

0 1

--Link1--
%chk=JID_4037.chk
%mem=8GB
%nprocshared=4
# B3LYP/6-311++G(d,p) empiricaldispersion=gd3bj scf=xqc pop=npa geom=check

CID_103984678_JID_4037_Energie_kation

1 2

--Link1--
%chk=JID_4037.chk
%mem=8GB
%nprocshared=4
# B3LYP/6-311++G(d,p) empiricaldispersion=gd3bj scf=xqc pop=npa geom=check

CID_103984678_JID_4037_Energie_anion

-1 2
