%chk=JID_3861.chk
%mem=8GB
%nprocshared=4
# opt freq B3LYP/6-31G(d) empiricaldispersion=gd3bj scf=xqc

CID_104316981_JID_3861_neutraal

0 1
C          0.97576        0.09220        0.03020
C          0.46734        1.15205       -0.93672
C          0.21415        0.66960       -2.37524
C         -0.36881       -0.74378       -2.56787
N         -1.78667       -0.81338       -2.95073
C         -2.13769       -2.11700       -3.55117
C         -1.70850       -3.41229       -2.83825
C         -2.27752       -3.65441       -1.44213
N         -3.73064       -3.76307       -1.44015
C         -2.74241       -0.33856       -1.94075
C         -3.26333        1.07368       -2.04454
C         -4.17768       -0.07339       -2.32687
O         -0.68821        1.76372       -0.37771
H          0.18970       -0.61816        0.30657
H          1.29123        0.56513        0.96731
H          1.83055       -0.45136       -0.38285
H          1.22074        1.94690       -0.99202
H         -0.39054        1.40733       -2.91645
H          1.19381        0.66645       -2.87435
H          0.20843       -1.18093       -3.39496
H         -0.17294       -1.38247       -1.70335
H         -3.21285       -2.16008       -3.76102
H         -1.67370       -2.13575       -4.54699
H         -1.99451       -4.25556       -3.48169
H         -0.61392       -3.45501       -2.78020
H         -1.86611       -4.59570       -1.06008
H         -1.95745       -2.87366       -0.74671
H         -4.05664       -3.92894       -0.48872
H         -4.14222       -2.87633       -1.72944
H         -2.59396       -0.72828       -0.93690
H         -3.43094        1.63710       -1.13440
H         -2.93908        1.68166       -2.88196
H         -4.48609       -0.21472       -3.35610
H         -4.94915       -0.29559       -1.59926
H         -1.36201        1.07480       -0.27467

--Link1--
%chk=JID_3861.chk
%mem=8GB
%nprocshared=4
# B3LYP/6-311++G(d,p) empiricaldispersion=gd3bj scf=xqc pop=npa geom=check

CID_104316981_JID_3861_Energie_neutraal

0 1

--Link1--
%chk=JID_3861.chk
%mem=8GB
%nprocshared=4
# B3LYP/6-311++G(d,p) empiricaldispersion=gd3bj scf=xqc pop=npa geom=check

CID_104316981_JID_3861_Energie_kation

1 2

--Link1--
%chk=JID_3861.chk
%mem=8GB
%nprocshared=4
# B3LYP/6-311++G(d,p) empiricaldispersion=gd3bj scf=xqc pop=npa geom=check

CID_104316981_JID_3861_Energie_anion

-1 2
