%chk=JID_7662.chk
%mem=8GB
%nprocshared=4
# opt freq B3LYP/6-31G(d) empiricaldispersion=gd3bj scf=xqc

CID_122007480_JID_7662_neutraal

0 1
C          1.06803        0.06479       -0.03427
N          0.68532       -0.37016       -1.37735
C         -0.12893       -1.58972       -1.42563
C         -1.53598       -1.43285       -0.85660
C         -2.30051       -0.30936       -1.49307
O         -2.76217       -0.29227       -2.62220
O         -2.45737        0.74758       -0.67298
C          1.52901        0.04096       -2.38854
O          2.54533        0.70396       -2.16761
N          1.29385       -0.28966       -3.67845
C          0.03221       -0.30754       -4.41664
C         -0.48761        1.11343       -4.71903
O          0.47563        1.84661       -5.48857
C         -0.02024        3.12731       -5.85524
C          0.25970       -1.09508       -5.68702
C          0.47100       -2.58937       -5.62926
C         -0.79739       -2.03454       -6.21383
H          1.79014       -0.64812        0.37577
H          0.18963        0.11581        0.61258
H          1.52446        1.05932       -0.05602
H         -0.16035       -2.01743       -2.42671
H          0.40451       -2.34424       -0.83221
H         -2.11050       -2.35445       -1.00396
H         -1.50643       -1.27419        0.22727
H         -2.94684        1.40760       -1.20682
H          2.03622        0.11396       -4.23805
H         -0.73375       -0.80089       -3.82849
H         -1.42507        1.04724       -5.28468
H         -0.67450        1.65147       -3.78236
H         -0.90670        3.02602       -6.48933
H         -0.25968        3.71675       -4.96512
H          0.75509        3.64811       -6.42326
H          0.85416       -0.54716       -6.41163
H          1.20294       -3.01825       -6.30455
H          0.41988       -3.08225       -4.66555
H         -1.71342       -2.16219       -5.64823
H         -0.92850       -2.09646       -7.28839

--Link1--
%chk=JID_7662.chk
%mem=8GB
%nprocshared=4
# B3LYP/6-311++G(d,p) empiricaldispersion=gd3bj scf=xqc pop=npa geom=check

CID_122007480_JID_7662_Energie_neutraal

0 1

--Link1--
%chk=JID_7662.chk
%mem=8GB
%nprocshared=4
# B3LYP/6-311++G(d,p) empiricaldispersion=gd3bj scf=xqc pop=npa geom=check

CID_122007480_JID_7662_Energie_kation

1 2

--Link1--
%chk=JID_7662.chk
%mem=8GB
%nprocshared=4
# B3LYP/6-311++G(d,p) empiricaldispersion=gd3bj scf=xqc pop=npa geom=check

CID_122007480_JID_7662_Energie_anion

-1 2
