%chk=JID_2847.chk
%mem=8GB
%nprocshared=4
# opt freq B3LYP/6-31G(d) empiricaldispersion=gd3bj scf=xqc

CID_147629762_JID_2847_neutraal

0 1
C          1.04830        0.04152       -0.07709
O          0.69603       -1.08487       -0.86400
C          1.22518       -1.08827       -2.18814
C          0.60411       -0.04987       -3.14504
C          1.36554        1.28974       -3.09528
C          0.70122        2.37822       -3.93105
C         -0.76519        2.54065       -3.53434
C         -1.53178        1.22380       -3.74703
C         -0.91123        0.09737       -2.92591
O         -2.89364        1.38762       -3.34475
O         -1.41972        3.65100       -4.16304
C         -1.39033        3.68612       -5.58106
H          0.84804       -0.20420        0.96991
H          0.43059        0.90511       -0.33191
H          2.11200        0.27833       -0.17421
H          2.31839       -1.00755       -2.15419
H          1.00478       -2.08584       -2.58665
H          0.75169       -0.43355       -4.16508
H          2.39120        1.13761       -3.45439
H          1.45601        1.65936       -2.07152
H          0.78788        2.11753       -4.99257
H          1.23305        3.32835       -3.80413
H         -0.80737        2.78190       -2.46365
H         -1.54197        0.94501       -4.80580
H         -1.14340        0.27794       -1.87016
H         -1.41340       -0.84851       -3.16822
H         -3.12506        2.31490       -3.54282
H         -0.37012        3.82288       -5.94806
H         -1.83808        2.78864       -6.01329
H         -1.97978        4.54856       -5.90481

--Link1--
%chk=JID_2847.chk
%mem=8GB
%nprocshared=4
# B3LYP/6-311++G(d,p) empiricaldispersion=gd3bj scf=xqc pop=npa geom=check

CID_147629762_JID_2847_Energie_neutraal

0 1

--Link1--
%chk=JID_2847.chk
%mem=8GB
%nprocshared=4
# B3LYP/6-311++G(d,p) empiricaldispersion=gd3bj scf=xqc pop=npa geom=check

CID_147629762_JID_2847_Energie_kation

1 2

--Link1--
%chk=JID_2847.chk
%mem=8GB
%nprocshared=4
# B3LYP/6-311++G(d,p) empiricaldispersion=gd3bj scf=xqc pop=npa geom=check

CID_147629762_JID_2847_Energie_anion

-1 2
