%chk=JID_6207.chk
%mem=8GB
%nprocshared=4
# opt freq B3LYP/6-31G(d) empiricaldispersion=gd3bj scf=xqc

CID_117362385_JID_6207_neutraal

0 1
C          0.93370       -0.05200       -0.05386
O          1.33734       -0.42881        1.26911
C          1.57555       -1.77335        1.35056
C          0.52101       -2.64116        1.68631
C          0.78561       -4.01833        1.79772
C          2.07014       -4.52011        1.59261
C          3.11586       -3.65150        1.29229
C          2.87210       -2.27689        1.18720
S          4.24489       -1.19831        0.86156
O          5.45571       -1.99012        1.00257
O          3.97321       -0.50440       -0.38304
C          4.25447       -0.02585        2.19178
C         -0.88298       -2.14846        1.94623
C         -1.87276       -2.62828        0.91871
O         -2.68648       -3.52593        1.07014
O         -1.78493       -1.97863       -0.25854
H          1.46569        0.86605       -0.32055
H         -0.13701        0.16977       -0.04829
H          1.14674       -0.81332       -0.81363
H         -0.01540       -4.71326        2.04998
H          2.25733       -5.58835        1.67763
H          4.11615       -4.05549        1.14711
H          3.40323        0.64879        2.10888
H          4.23767       -0.56431        3.14125
H          5.17752        0.55436        2.11737
H         -1.21109       -2.50700        2.93023
H         -0.94574       -1.05688        2.00561
H         -2.45580       -2.41787       -0.82303

--Link1--
%chk=JID_6207.chk
%mem=8GB
%nprocshared=4
# B3LYP/6-311++G(d,p) empiricaldispersion=gd3bj scf=xqc pop=npa geom=check

CID_117362385_JID_6207_Energie_neutraal

0 1

--Link1--
%chk=JID_6207.chk
%mem=8GB
%nprocshared=4
# B3LYP/6-311++G(d,p) empiricaldispersion=gd3bj scf=xqc pop=npa geom=check

CID_117362385_JID_6207_Energie_kation

1 2

--Link1--
%chk=JID_6207.chk
%mem=8GB
%nprocshared=4
# B3LYP/6-311++G(d,p) empiricaldispersion=gd3bj scf=xqc pop=npa geom=check

CID_117362385_JID_6207_Energie_anion

-1 2
