%chk=JID_5492.chk
%mem=8GB
%nprocshared=4
# opt freq B3LYP/6-31G(d) empiricaldispersion=gd3bj scf=xqc

CID_102767326_JID_5492_neutraal

0 1
C         -1.14400        0.00000       -0.00200
C         -0.23439        0.93882        0.42795
N          0.90099        0.67863       -0.28546
C          0.64895       -0.39602       -1.08966
N         -0.58535       -0.82198       -0.94585
C          2.16458        1.37765       -0.18259
C          2.41135        2.36452       -1.32223
C          1.48037        3.57907       -1.32683
N          1.74568        4.42397       -0.17351
C          1.53186        5.75881       -0.27563
N          1.42649        6.42994       -1.39818
C          1.22014        7.76948       -1.12843
C          1.17590        8.11996        0.20530
S          1.38552        6.71164        1.15434
N          1.00030        9.34051        0.75527
H         -2.16959       -0.12876        0.31918
H         -0.30814        1.73658        1.15312
H          1.38852       -0.82342       -1.75456
H          2.20324        1.86831        0.79584
H          2.94830        0.61034       -0.18500
H          3.45070        2.71142       -1.26110
H          2.30862        1.84435       -2.28282
H          1.66344        4.12024       -2.26353
H          0.42794        3.27604       -1.33310
H          1.50819        4.02721        0.72815
H          1.10882        8.45819       -1.95579
H          1.19629        9.47035        1.74364
H          1.11167       10.18174        0.19735

--Link1--
%chk=JID_5492.chk
%mem=8GB
%nprocshared=4
# B3LYP/6-311++G(d,p) empiricaldispersion=gd3bj scf=xqc pop=npa geom=check

CID_102767326_JID_5492_Energie_neutraal

0 1

--Link1--
%chk=JID_5492.chk
%mem=8GB
%nprocshared=4
# B3LYP/6-311++G(d,p) empiricaldispersion=gd3bj scf=xqc pop=npa geom=check

CID_102767326_JID_5492_Energie_kation

1 2

--Link1--
%chk=JID_5492.chk
%mem=8GB
%nprocshared=4
# B3LYP/6-311++G(d,p) empiricaldispersion=gd3bj scf=xqc pop=npa geom=check

CID_102767326_JID_5492_Energie_anion

-1 2
