%chk=JID_5071.chk
%mem=8GB
%nprocshared=4
# opt freq B3LYP/6-31G(d) empiricaldispersion=gd3bj scf=xqc

CID_4254751_JID_5071_neutraal

0 1
C          0.97277        0.07514        0.06010
C          1.94493        0.91902       -0.74009
C          1.81243        0.73066       -2.24957
C          0.48388        0.10264       -2.73498
C         -0.70834        0.53858       -1.84676
C         -0.47256        0.36779       -0.32782
C         -2.03931       -0.12689       -2.29841
C         -1.86521       -1.54995       -2.88450
C         -1.79512       -1.51742       -4.43643
C         -0.56894       -2.19615       -5.05927
C          0.76463       -1.95063       -4.33482
C          0.60095       -1.46946       -2.87592
C         -0.62066       -2.18724       -2.27310
O         -0.59883       -3.59073       -2.52537
O          0.22245        0.69668       -4.02133
H          1.19694       -0.98704       -0.08626
H          1.10658        0.26969        1.13072
H          1.77364        1.97629       -0.49947
H          2.97388        0.70041       -0.43160
H          1.95952        1.71353       -2.71891
H          2.65508        0.12993       -2.61664
H         -0.85548        1.61859       -2.00301
H         -0.78213        1.29993        0.16453
H         -1.11678       -0.40547        0.10590
H         -2.72849       -0.17624       -1.44543
H         -2.54202        0.52217       -3.02640
H         -2.74922       -2.14345       -2.61686
H         -1.84833       -0.48890       -4.81076
H         -2.69542       -2.00253       -4.83617
H         -0.47554       -1.89465       -6.10957
H         -0.75438       -3.27800       -5.08779
H          1.40202       -1.27393       -4.91332
H          1.31669       -2.90082       -4.33034
H          1.48456       -1.81526       -2.32376
H         -0.63894       -2.10035       -1.18514
H          0.22462       -3.94472       -2.14902
H          1.05043        0.72706       -4.52969

--Link1--
%chk=JID_5071.chk
%mem=8GB
%nprocshared=4
# B3LYP/6-311++G(d,p) empiricaldispersion=gd3bj scf=xqc pop=npa geom=check

CID_4254751_JID_5071_Energie_neutraal

0 1

--Link1--
%chk=JID_5071.chk
%mem=8GB
%nprocshared=4
# B3LYP/6-311++G(d,p) empiricaldispersion=gd3bj scf=xqc pop=npa geom=check

CID_4254751_JID_5071_Energie_kation

1 2

--Link1--
%chk=JID_5071.chk
%mem=8GB
%nprocshared=4
# B3LYP/6-311++G(d,p) empiricaldispersion=gd3bj scf=xqc pop=npa geom=check

CID_4254751_JID_5071_Energie_anion

-1 2
