%chk=JID_2817.chk
%mem=8GB
%nprocshared=4
# opt freq B3LYP/6-31G(d) empiricaldispersion=gd3bj scf=xqc

CID_126995629_JID_2817_neutraal

0 1
C          1.04703       -0.07738        0.04244
C          0.74729       -1.53660        0.24548
C          1.66315       -2.52488        0.37102
C          1.25725       -3.98579        0.50880
N         -0.13686       -4.30150        0.19305
C         -1.03286       -3.29044        0.75654
C         -0.73304       -1.86048        0.29111
C         -0.43420       -4.66768       -1.20028
C          0.31277       -3.91663       -2.31098
C         -0.18148       -6.15316       -1.36004
C         -1.11280       -7.05418       -1.70359
C          3.15429       -2.32059        0.40913
H          0.78774        0.48890        0.94264
H          0.45442        0.31387       -0.79193
H          2.09231        0.12511       -0.19898
H          1.43396       -4.27320        1.55436
H          1.93489       -4.61880       -0.07685
H         -2.08265       -3.53687        0.55449
H         -0.94219       -3.32809        1.85115
H         -1.16251       -1.69781       -0.70455
H         -1.23683       -1.16557        0.97433
H         -1.50597       -4.50572       -1.38148
H          1.39690       -4.06444       -2.26457
H         -0.01422       -4.27241       -3.29582
H          0.10899       -2.84342       -2.28313
H          0.83320       -6.50061       -1.18004
H         -0.85897       -8.10550       -1.79464
H         -2.14294       -6.76729       -1.88804
H          3.58580       -2.86417        1.25697
H          3.60916       -2.70195       -0.51073
H          3.45062       -1.27668        0.52879

--Link1--
%chk=JID_2817.chk
%mem=8GB
%nprocshared=4
# B3LYP/6-311++G(d,p) empiricaldispersion=gd3bj scf=xqc pop=npa geom=check

CID_126995629_JID_2817_Energie_neutraal

0 1

--Link1--
%chk=JID_2817.chk
%mem=8GB
%nprocshared=4
# B3LYP/6-311++G(d,p) empiricaldispersion=gd3bj scf=xqc pop=npa geom=check

CID_126995629_JID_2817_Energie_kation

1 2

--Link1--
%chk=JID_2817.chk
%mem=8GB
%nprocshared=4
# B3LYP/6-311++G(d,p) empiricaldispersion=gd3bj scf=xqc pop=npa geom=check

CID_126995629_JID_2817_Energie_anion

-1 2
