%chk=JID_8188.chk
%mem=8GB
%nprocshared=4
# opt freq B3LYP/6-31G(d) empiricaldispersion=gd3bj scf=xqc

CID_105588492_JID_8188_neutraal

0 1
C          1.00954       -0.03420        0.09349
C          0.35812       -1.24575       -0.61550
C          0.89369       -1.12911       -2.08974
N          0.70687       -2.18723       -3.07598
C          1.45461       -3.38285       -2.73130
C          0.85523       -4.31324       -1.69420
C          0.06653       -3.70168       -0.53930
N          0.61262       -2.51275        0.12852
C          0.18524       -2.49314        1.55846
C         -1.28842       -2.27984        1.87738
C         -2.20802       -3.32088        2.05751
N         -3.52687       -3.12980        2.34662
C         -3.95913       -1.86334        2.49244
C         -3.13318       -0.76639        2.37712
C         -1.79130       -0.98192        2.07274
C         -1.84288       -4.71287        2.01319
N         -1.52926       -5.83116        1.97617
C         -0.66050       -2.38967       -3.51249
H          0.65881        0.13581        1.10879
H          0.80491        0.89119       -0.45795
H          2.09825       -0.15446        0.14885
H         -0.72585       -1.07961       -0.66050
H          0.47366       -0.20759       -2.51848
H          1.97437       -0.92872       -2.04590
H          2.46721       -3.10182       -2.41025
H          1.62274       -3.96182       -3.64927
H          1.67487       -4.91572       -1.27916
H          0.19283       -5.02698       -2.20203
H          0.03545       -4.52468        0.18177
H         -0.97736       -3.53595       -0.82618
H          0.52310       -3.42319        2.03626
H          0.77117       -1.74141        2.10171
H         -5.01451       -1.75203        2.72496
H         -3.51790        0.23683        2.52778
H         -1.14402       -0.11389        2.01435
H         -1.34592       -2.66543       -2.70927
H         -1.04777       -1.47358       -3.97242
H         -0.70888       -3.16646       -4.28375

--Link1--
%chk=JID_8188.chk
%mem=8GB
%nprocshared=4
# B3LYP/6-311++G(d,p) empiricaldispersion=gd3bj scf=xqc pop=npa geom=check

CID_105588492_JID_8188_Energie_neutraal

0 1

--Link1--
%chk=JID_8188.chk
%mem=8GB
%nprocshared=4
# B3LYP/6-311++G(d,p) empiricaldispersion=gd3bj scf=xqc pop=npa geom=check

CID_105588492_JID_8188_Energie_kation

1 2

--Link1--
%chk=JID_8188.chk
%mem=8GB
%nprocshared=4
# B3LYP/6-311++G(d,p) empiricaldispersion=gd3bj scf=xqc pop=npa geom=check

CID_105588492_JID_8188_Energie_anion

-1 2
