%chk=JID_4280.chk
%mem=8GB
%nprocshared=4
# opt freq B3LYP/6-31G(d) empiricaldispersion=gd3bj scf=xqc

CID_62579301_JID_4280_neutraal

0 1
C          0.94550       -0.05141       -0.06624
C          0.44074        0.96957        0.94409
C          1.49127        2.04822        1.20527
S         -1.19277        1.76047        0.60982
C         -1.56244        1.36816       -1.14363
C         -1.30040        2.54401       -2.09786
N          0.12317        2.86208       -2.20790
C          0.39092        4.00905       -3.08548
C         -0.01512        5.39009       -2.53664
C          0.61971        5.71462       -1.21262
C          0.05040        5.64451        0.04403
C          0.96149        6.01667        1.07352
C          2.19350        6.36587        0.56902
S          2.24538        6.25049       -1.13575
H          1.17207        0.40294       -1.03535
H          0.22462       -0.86327       -0.20730
H          1.87321       -0.51126        0.29392
H          0.29238        0.43634        1.89099
H          1.74246        2.61154        0.30299
H          1.16084        2.75451        1.97490
H          2.41965        1.59158        1.56731
H         -1.07029        0.45772       -1.48933
H         -2.63683        1.15211       -1.17517
H         -1.68288        2.26757       -3.08777
H         -1.87673        3.41254       -1.75914
H          0.47329        3.08018       -1.27355
H          1.46958        4.01303       -3.28437
H         -0.08920        3.84991       -4.05885
H          0.26055        6.15693       -3.27204
H         -1.10599        5.44909       -2.44039
H         -0.97140        5.32878        0.22067
H          0.72444        6.02459        2.13030
H          3.06771        6.68628        1.11873

--Link1--
%chk=JID_4280.chk
%mem=8GB
%nprocshared=4
# B3LYP/6-311++G(d,p) empiricaldispersion=gd3bj scf=xqc pop=npa geom=check

CID_62579301_JID_4280_Energie_neutraal

0 1

--Link1--
%chk=JID_4280.chk
%mem=8GB
%nprocshared=4
# B3LYP/6-311++G(d,p) empiricaldispersion=gd3bj scf=xqc pop=npa geom=check

CID_62579301_JID_4280_Energie_kation

1 2

--Link1--
%chk=JID_4280.chk
%mem=8GB
%nprocshared=4
# B3LYP/6-311++G(d,p) empiricaldispersion=gd3bj scf=xqc pop=npa geom=check

CID_62579301_JID_4280_Energie_anion

-1 2
