%chk=JID_4736.chk
%mem=8GB
%nprocshared=4
# opt freq B3LYP/6-31G(d) empiricaldispersion=gd3bj scf=xqc

CID_131024908_JID_4736_neutraal

0 1
C          0.95774        0.06721       -0.06081
C          0.61516        1.51041        0.27333
C          0.86611        2.52789       -0.86625
C          0.04621        2.28345       -2.18670
C         -1.46274        2.15915       -1.94892
C          0.31987        3.40102       -3.20765
O          0.49331        1.06235       -2.79921
N          0.57611        3.88009       -0.34241
C          1.49731        4.60458        0.41636
C          2.87727        4.41694        0.36354
C          3.70648        5.24753        1.10716
N          3.26613        6.26108        1.87865
C          1.93470        6.46094        1.88762
C          1.03235        5.68267        1.17647
H          0.23981       -0.36589       -0.76222
H          0.92719       -0.54285        0.84814
H          1.96279       -0.01306       -0.48614
H         -0.42508        1.56587        0.61613
H          1.22449        1.79852        1.14013
H          1.91935        2.43969       -1.15610
H         -1.87823        3.05051       -1.46956
H         -1.99218        2.00783       -2.89721
H         -1.69957        1.28491       -1.33402
H          1.39444        3.49020       -3.40443
H         -0.15122        3.17506       -4.17152
H         -0.05496        4.37215       -2.86956
H          0.00530        0.94802       -3.63320
H         -0.36720        3.95553        0.03132
H          3.33651        3.64903       -0.24462
H          4.78452        5.11524        1.08906
H          1.59470        7.29465        2.49474
H         -0.02404        5.92263        1.22204

--Link1--
%chk=JID_4736.chk
%mem=8GB
%nprocshared=4
# B3LYP/6-311++G(d,p) empiricaldispersion=gd3bj scf=xqc pop=npa geom=check

CID_131024908_JID_4736_Energie_neutraal

0 1

--Link1--
%chk=JID_4736.chk
%mem=8GB
%nprocshared=4
# B3LYP/6-311++G(d,p) empiricaldispersion=gd3bj scf=xqc pop=npa geom=check

CID_131024908_JID_4736_Energie_kation

1 2

--Link1--
%chk=JID_4736.chk
%mem=8GB
%nprocshared=4
# B3LYP/6-311++G(d,p) empiricaldispersion=gd3bj scf=xqc pop=npa geom=check

CID_131024908_JID_4736_Energie_anion

-1 2
