%chk=JID_5627.chk
%mem=8GB
%nprocshared=4
# opt freq B3LYP/6-31G(d) empiricaldispersion=gd3bj scf=xqc

CID_103902113_JID_5627_neutraal

0 1
C          1.03056       -0.05982        0.07408
C          0.78118        0.42284        1.50822
C          1.37512        1.80433        1.68429
C          2.57084        1.96424        2.38202
N          3.20339        3.14725        2.56392
C          2.62077        4.23418        2.01842
C          1.44327        4.19111        1.29281
C          0.81944        2.95833        1.11790
N         -0.66075        0.34287        1.75721
C         -1.04351        0.09518        3.13993
C         -0.89339        1.29670        4.02051
C         -1.40698        1.21754        5.43934
C          0.07467        1.38455        5.19985
C          0.96938        0.22564        5.55642
C          0.67551        2.73292        5.51145
H          0.52950        0.57375       -0.66751
H          0.66734       -1.08515       -0.06158
H          2.10170       -0.05643       -0.15928
H          1.29776       -0.28422        2.17061
H          3.07778        1.11475        2.83254
H          3.14533        5.17131        2.17985
H          1.02434        5.09523        0.86592
H         -0.09271        2.90725        0.53030
H         -1.15128        1.14965        1.38536
H         -2.10629       -0.17586        3.12942
H         -0.52306       -0.78621        3.52717
H         -1.15004        2.21188        3.49483
H         -1.77112        0.26412        5.80766
H         -1.97006        2.06358        5.82005
H          0.44085       -0.73270        5.54472
H          1.80800        0.16146        4.85695
H          1.37669        0.35569        6.56488
H          0.06365        3.55482        5.12456
H          0.76692        2.86337        6.59494
H          1.67395        2.82240        5.07490

--Link1--
%chk=JID_5627.chk
%mem=8GB
%nprocshared=4
# B3LYP/6-311++G(d,p) empiricaldispersion=gd3bj scf=xqc pop=npa geom=check

CID_103902113_JID_5627_Energie_neutraal

0 1

--Link1--
%chk=JID_5627.chk
%mem=8GB
%nprocshared=4
# B3LYP/6-311++G(d,p) empiricaldispersion=gd3bj scf=xqc pop=npa geom=check

CID_103902113_JID_5627_Energie_kation

1 2

--Link1--
%chk=JID_5627.chk
%mem=8GB
%nprocshared=4
# B3LYP/6-311++G(d,p) empiricaldispersion=gd3bj scf=xqc pop=npa geom=check

CID_103902113_JID_5627_Energie_anion

-1 2
