%chk=JID_9700.chk
%mem=8GB
%nprocshared=4
# opt freq B3LYP/6-31G(d) empiricaldispersion=gd3bj scf=xqc

CID_55172287_JID_9700_neutraal

0 1
C          1.07814       -0.05285        0.03318
O          0.65907       -0.72696       -1.14472
C          0.96012       -0.02265       -2.35165
C          0.13103        1.25671       -2.57817
N          0.78422        2.45334       -2.03156
C          1.90919        3.04741       -2.75719
C          1.45888        3.96885       -3.89548
C          1.06687        5.35025       -3.42074
S          2.14819        6.61393       -3.30881
N         -0.24383        5.53774       -3.09878
C          0.21535        3.09857       -0.98772
N         -0.95902        2.88282       -0.43126
C         -1.01298        3.78525        0.59825
C         -1.99890        4.03062        1.56177
C         -1.75867        5.03804        2.50903
C         -0.57016        5.78064        2.49182
C          0.42249        5.54723        1.53193
C          0.14581        4.53951        0.61727
O          0.93614        4.10714       -0.40327
H          1.15987       -0.79369        0.83377
H          0.32505        0.67420        0.33750
H          2.05454        0.42373       -0.09575
H          2.03933        0.15553       -2.41087
H          0.71487       -0.72237       -3.15878
H          0.01026        1.40011       -3.65855
H         -0.87655        1.11436       -2.16964
H          2.59504        3.56548       -2.07590
H          2.50341        2.23965       -3.20130
H          2.28034        4.06612       -4.61680
H          0.61566        3.52861       -4.44095
H         -0.87946        4.75712       -2.97161
H         -0.52640        6.42693       -2.70270
H         -2.91562        3.45175        1.57328
H         -2.50873        5.24292        3.27069
H         -0.41308        6.55420        3.24174
H          1.34823        6.10782        1.50218

--Link1--
%chk=JID_9700.chk
%mem=8GB
%nprocshared=4
# B3LYP/6-311++G(d,p) empiricaldispersion=gd3bj scf=xqc pop=npa geom=check

CID_55172287_JID_9700_Energie_neutraal

0 1

--Link1--
%chk=JID_9700.chk
%mem=8GB
%nprocshared=4
# B3LYP/6-311++G(d,p) empiricaldispersion=gd3bj scf=xqc pop=npa geom=check

CID_55172287_JID_9700_Energie_kation

1 2

--Link1--
%chk=JID_9700.chk
%mem=8GB
%nprocshared=4
# B3LYP/6-311++G(d,p) empiricaldispersion=gd3bj scf=xqc pop=npa geom=check

CID_55172287_JID_9700_Energie_anion

-1 2
