%chk=JID_8002.chk
%mem=8GB
%nprocshared=4
# opt freq B3LYP/6-31G(d) empiricaldispersion=gd3bj scf=xqc

CID_116361054_JID_8002_neutraal

0 1
C          2.60700        0.96000       -0.00600
C          1.25366        0.32446       -0.14725
C          0.18784        1.09690       -0.61138
C         -1.05579        0.50320       -0.77748
N         -1.28865       -0.80279       -0.49980
C         -0.27412       -1.58191       -0.06581
C          1.00146       -1.02597        0.16258
C          2.07154       -1.90811        0.68206
O          2.32340       -2.98495        0.15509
N          2.72654       -1.48646        1.80644
N         -0.51964       -2.91955        0.25946
C         -1.75102       -3.66964       -0.08505
C         -1.99588       -3.66675       -1.60714
C         -1.44901       -5.14505        0.30219
C         -3.02739       -3.21161        0.73180
C         -2.74868       -3.00673        2.22809
N         -3.69149       -2.00599        0.20470
C         -2.21373        1.31536       -1.27812
H          2.67911        1.87079       -0.61096
H          2.79279        1.23320        1.03700
H          3.39671        0.28889       -0.35856
H          0.32428        2.14678       -0.85555
H          2.36851       -0.73168        2.37553
H          3.35824       -2.14821        2.23912
H          0.31420       -3.45450       -0.01029
H         -1.11337       -4.02827       -2.14833
H         -2.83805       -4.31771       -1.86831
H         -2.22048       -2.67138       -2.00060
H         -1.15656       -5.24049        1.35307
H         -2.31854       -5.78907        0.12976
H         -0.61810       -5.54694       -0.29079
H         -3.77720       -4.00913        0.65106
H         -2.06375       -2.17068        2.40494
H         -3.67793       -2.79029        2.76856
H         -2.31997       -3.90231        2.68611
H         -4.17138       -1.51220        0.95267
H         -2.93257       -1.37265       -0.09134
H         -2.46368        2.09862       -0.55588
H         -1.96581        1.77712       -2.23896
H         -3.09876        0.68811       -1.42340

--Link1--
%chk=JID_8002.chk
%mem=8GB
%nprocshared=4
# B3LYP/6-311++G(d,p) empiricaldispersion=gd3bj scf=xqc pop=npa geom=check

CID_116361054_JID_8002_Energie_neutraal

0 1

--Link1--
%chk=JID_8002.chk
%mem=8GB
%nprocshared=4
# B3LYP/6-311++G(d,p) empiricaldispersion=gd3bj scf=xqc pop=npa geom=check

CID_116361054_JID_8002_Energie_kation

1 2

--Link1--
%chk=JID_8002.chk
%mem=8GB
%nprocshared=4
# B3LYP/6-311++G(d,p) empiricaldispersion=gd3bj scf=xqc pop=npa geom=check

CID_116361054_JID_8002_Energie_anion

-1 2
