%chk=JID_6199.chk
%mem=8GB
%nprocshared=4
# opt freq B3LYP/6-31G(d) empiricaldispersion=gd3bj scf=xqc

CID_84127132_JID_6199_neutraal

0 1
C          1.00603        0.08879        0.04561
N          0.62486       -0.30432        1.39488
C         -0.82190       -0.53710        1.53088
C         -1.39035       -1.75218        0.78134
C         -0.89689       -3.06883        1.26845
N          0.38900       -3.32724        1.52678
N          0.34125       -4.62743        1.88914
C         -0.93520       -5.12995        1.80187
N         -1.73292       -4.14131        1.42034
C         -1.34963       -6.50982        2.06547
C         -2.68944       -6.87659        1.96852
C         -3.04578       -8.20138        2.20584
C         -2.05770       -9.12149        2.53141
C         -0.74944       -8.67510        2.60778
N         -0.37347       -7.39555        2.38366
C          1.55543       -5.28865        2.29527
H          0.47396        0.99175       -0.27042
H          0.82744       -0.70738       -0.68289
H          2.07652        0.31635        0.02655
H          1.09239       -1.19397        1.61440
H         -1.03173       -0.65367        2.60153
H         -1.36062        0.36528        1.21612
H         -2.48214       -1.73222        0.89338
H         -1.19666       -1.67155       -0.29398
H         -3.44529       -6.14132        1.70744
H         -4.08494       -8.50955        2.13354
H         -2.30103      -10.16125        2.71964
H          0.05787       -9.35820        2.85788
H          2.37380       -4.56298        2.31426
H          1.41846       -5.69459        3.30021
H          1.78759       -6.07341        1.57188

--Link1--
%chk=JID_6199.chk
%mem=8GB
%nprocshared=4
# B3LYP/6-311++G(d,p) empiricaldispersion=gd3bj scf=xqc pop=npa geom=check

CID_84127132_JID_6199_Energie_neutraal

0 1

--Link1--
%chk=JID_6199.chk
%mem=8GB
%nprocshared=4
# B3LYP/6-311++G(d,p) empiricaldispersion=gd3bj scf=xqc pop=npa geom=check

CID_84127132_JID_6199_Energie_kation

1 2

--Link1--
%chk=JID_6199.chk
%mem=8GB
%nprocshared=4
# B3LYP/6-311++G(d,p) empiricaldispersion=gd3bj scf=xqc pop=npa geom=check

CID_84127132_JID_6199_Energie_anion

-1 2
