%chk=JID_3547.chk
%mem=8GB
%nprocshared=4
# opt freq B3LYP/6-31G(d) empiricaldispersion=gd3bj scf=xqc

CID_116246455_JID_3547_neutraal

0 1
C          0.90936        0.03205       -0.02752
C          1.02336        1.49804       -0.40961
C          1.53247        1.72706       -1.83712
C          0.64815        1.13394       -2.95475
N         -0.65314        1.82066       -2.97247
C         -1.50221        1.38742       -3.99756
N         -2.68928        0.88601       -3.59607
C         -3.53266        0.47667       -4.56419
C         -3.19590        0.58055       -5.91245
N         -2.01275        1.07387       -6.34330
C         -1.18522        1.48505       -5.35401
N         -4.76769       -0.02116       -4.15044
O          1.63857        3.14215       -2.04347
H          0.12902       -0.47273       -0.60441
H          0.64879       -0.06068        1.03174
H          1.85653       -0.49169       -0.19009
H          0.05813        1.99660       -0.26050
H          1.71080        1.99424        0.28770
H          2.54264        1.31179       -1.92718
H          1.16504        1.30549       -3.90670
H          0.52100        0.05345       -2.82630
H         -1.19176        1.61528       -2.12808
H         -3.88631        0.27208       -6.68930
H         -0.24929        1.92047       -5.68504
H         -4.76387       -0.03346       -3.13342
H         -4.95755       -0.93772       -4.53934
H          0.74411        3.43164       -2.31801

--Link1--
%chk=JID_3547.chk
%mem=8GB
%nprocshared=4
# B3LYP/6-311++G(d,p) empiricaldispersion=gd3bj scf=xqc pop=npa geom=check

CID_116246455_JID_3547_Energie_neutraal

0 1

--Link1--
%chk=JID_3547.chk
%mem=8GB
%nprocshared=4
# B3LYP/6-311++G(d,p) empiricaldispersion=gd3bj scf=xqc pop=npa geom=check

CID_116246455_JID_3547_Energie_kation

1 2

--Link1--
%chk=JID_3547.chk
%mem=8GB
%nprocshared=4
# B3LYP/6-311++G(d,p) empiricaldispersion=gd3bj scf=xqc pop=npa geom=check

CID_116246455_JID_3547_Energie_anion

-1 2
