%chk=JID_9335.chk
%mem=8GB
%nprocshared=4
# opt freq B3LYP/6-31G(d) empiricaldispersion=gd3bj scf=xqc

CID_136139932_JID_9335_neutraal

0 1
C          1.01394       -0.08158        0.05613
C          1.05687       -1.60132        0.19385
N          1.59639       -2.06069        1.48039
C          1.39075       -3.50189        1.62707
C          2.99892       -1.68402        1.73439
C          4.14975       -2.40759        0.99565
N          4.10339       -2.30278       -0.46330
C          4.36925       -1.17995       -1.00670
N          4.70382        0.02070       -0.46450
C          5.12150        1.06933       -1.38219
C          4.46012        0.74591       -2.72793
S          4.31589       -1.06631       -2.76157
C          4.68370        2.45249       -0.87398
C          5.22124        2.77717        0.50081
C          4.40232        2.62471        1.62993
C          4.90060        2.88533        2.90610
C          6.22036        3.30112        3.06609
C          7.04201        3.45682        1.95060
C          6.54656        3.19521        0.67212
H          0.49195        0.37480        0.90385
H          0.47083        0.19191       -0.85479
H          2.00827        0.36224       -0.01445
H          0.01696       -1.94511        0.11365
H          1.58446       -2.04122       -0.65772
H          1.87128       -4.07901        0.82959
H          1.77373       -3.85321        2.59182
H          0.32030       -3.73690        1.61660
H          3.11270       -0.60115        1.62428
H          3.17349       -1.84945        2.80691
H          5.11157       -2.03529        1.37147
H          4.13742       -3.47245        1.25505
H          5.09039        0.03808        0.47069
H          6.21358        1.02955       -1.48474
H          3.44965        1.16268       -2.79643
H          5.04897        1.11494       -3.57232
H          5.01214        3.22815       -1.57770
H          3.58736        2.51710       -0.84938
H          3.37021        2.29463        1.52304
H          4.25822        2.76451        3.77492
H          6.60809        3.50618        4.06066
H          8.07096        3.78359        2.07815
H          7.20295        3.32152       -0.18569

--Link1--
%chk=JID_9335.chk
%mem=8GB
%nprocshared=4
# B3LYP/6-311++G(d,p) empiricaldispersion=gd3bj scf=xqc pop=npa geom=check

CID_136139932_JID_9335_Energie_neutraal

0 1

--Link1--
%chk=JID_9335.chk
%mem=8GB
%nprocshared=4
# B3LYP/6-311++G(d,p) empiricaldispersion=gd3bj scf=xqc pop=npa geom=check

CID_136139932_JID_9335_Energie_kation

1 2

--Link1--
%chk=JID_9335.chk
%mem=8GB
%nprocshared=4
# B3LYP/6-311++G(d,p) empiricaldispersion=gd3bj scf=xqc pop=npa geom=check

CID_136139932_JID_9335_Energie_anion

-1 2
