%chk=JID_7457.chk
%mem=8GB
%nprocshared=4
# opt freq B3LYP/6-31G(d) empiricaldispersion=gd3bj scf=xqc

CID_62880704_JID_7457_neutraal

0 1
C          1.36700        0.70100        0.00100
C          0.17929        1.32938       -0.29784
S         -1.08378        0.21335       -0.57883
C         -0.05405       -1.12539       -0.28530
C          1.23297       -0.71775        0.00793
C         -0.58691       -2.52977       -0.37708
C         -1.08544       -3.06763        0.97570
N         -2.35531       -2.45201        1.37201
C         -2.80944       -2.87842        2.70235
C         -2.04191       -2.27511        3.90088
N         -1.91511       -0.80413        3.80066
C         -3.01183        0.02764        3.99917
C         -2.97237        1.36320        3.91197
C         -1.67434        2.00202        3.58878
O         -1.57003        3.21953        3.49166
C         -0.50580        1.11306        3.39391
C         -0.69404       -0.20722        3.50784
H          2.28729        1.23491        0.20341
H         -0.01051        2.39200       -0.36791
H          2.04447       -1.40486        0.21521
H         -1.38088       -2.59821       -1.13164
H          0.22238       -3.18207       -0.73067
H         -1.23641       -4.14921        0.87787
H         -0.31425       -2.90842        1.73775
H         -2.23512       -1.43281        1.39656
H         -3.86116       -2.57866        2.78497
H         -2.80566       -3.97262        2.77490
H         -2.56746       -2.53072        4.82970
H         -1.05126       -2.74034        3.97499
H         -3.94057       -0.48467        4.23405
H         -3.82948        2.00284        4.06281
H          0.44524        1.56679        3.15801
H          0.13390       -0.89452        3.36108

--Link1--
%chk=JID_7457.chk
%mem=8GB
%nprocshared=4
# B3LYP/6-311++G(d,p) empiricaldispersion=gd3bj scf=xqc pop=npa geom=check

CID_62880704_JID_7457_Energie_neutraal

0 1

--Link1--
%chk=JID_7457.chk
%mem=8GB
%nprocshared=4
# B3LYP/6-311++G(d,p) empiricaldispersion=gd3bj scf=xqc pop=npa geom=check

CID_62880704_JID_7457_Energie_kation

1 2

--Link1--
%chk=JID_7457.chk
%mem=8GB
%nprocshared=4
# B3LYP/6-311++G(d,p) empiricaldispersion=gd3bj scf=xqc pop=npa geom=check

CID_62880704_JID_7457_Energie_anion

-1 2
