%chk=JID_7243.chk
%mem=8GB
%nprocshared=4
# opt freq B3LYP/6-31G(d) empiricaldispersion=gd3bj scf=xqc

CID_64410861_JID_7243_neutraal

0 1
C          0.93611        0.05777       -0.05079
C          0.73372       -0.42154       -1.48099
C          0.59056       -1.95234       -1.58286
C         -0.70012       -2.47307       -0.90155
O         -1.85614       -1.92258       -1.54217
C         -3.05483       -2.29475       -0.87679
N          0.59085       -2.27380       -3.01425
C          1.49246       -3.30080       -3.53699
C          2.95143       -2.82028       -3.62080
C          3.76616       -3.02876       -2.34818
C          3.66500       -4.46346       -1.82545
C          2.21503       -4.92475       -1.65788
C          1.37328       -4.70022       -2.91317
O          4.33380       -5.33483       -2.75713
C          5.25054       -6.08922       -1.96482
C          5.57151       -5.16833       -0.82073
O          4.31819       -4.54522       -0.54651
H          0.04268       -0.10402        0.55886
H          1.14845        1.13188       -0.04318
H          1.77902       -0.45552        0.42264
H         -0.13787        0.08551       -1.91302
H          1.60627       -0.09947       -2.06495
H          1.43890       -2.39166       -1.06230
H         -0.74607       -3.56586       -0.97439
H         -0.70414       -2.20802        0.16130
H         -3.16839       -3.38285       -0.86990
H         -3.05986       -1.90771        0.14678
H         -3.89862       -1.85779       -1.41763
H         -0.37521       -2.45541       -3.30083
H          1.16795       -3.41294       -4.58112
H          3.44289       -3.36790       -4.43656
H          2.99174       -1.76336       -3.91342
H          3.47259       -2.31463       -1.57245
H          4.81513       -2.79217       -2.57003
H          1.75871       -4.44032       -0.78928
H          2.19964       -5.99711       -1.42193
H          0.32382       -4.94155       -2.70630
H          1.69595       -5.43081       -3.66783
H          6.12712       -6.37285       -2.55225
H          4.73644       -6.99303       -1.62098
H          6.28495       -4.39047       -1.11378
H          5.94730       -5.68848        0.06365

--Link1--
%chk=JID_7243.chk
%mem=8GB
%nprocshared=4
# B3LYP/6-311++G(d,p) empiricaldispersion=gd3bj scf=xqc pop=npa geom=check

CID_64410861_JID_7243_Energie_neutraal

0 1

--Link1--
%chk=JID_7243.chk
%mem=8GB
%nprocshared=4
# B3LYP/6-311++G(d,p) empiricaldispersion=gd3bj scf=xqc pop=npa geom=check

CID_64410861_JID_7243_Energie_kation

1 2

--Link1--
%chk=JID_7243.chk
%mem=8GB
%nprocshared=4
# B3LYP/6-311++G(d,p) empiricaldispersion=gd3bj scf=xqc pop=npa geom=check

CID_64410861_JID_7243_Energie_anion

-1 2
