%chk=JID_651.chk
%mem=8GB
%nprocshared=4
# opt freq B3LYP/6-31G(d) empiricaldispersion=gd3bj scf=xqc

CID_147051147_JID_651_neutraal

0 1
C          0.93071        0.00520       -0.07192
C          0.18689       -1.04813       -0.88523
C          1.12284       -2.08922       -1.53529
C          1.79633       -2.97918       -0.49447
C          0.84052       -4.13068       -0.48426
N          0.05919       -4.25767       -1.51216
C          0.40774       -3.14042       -2.42841
C         -0.87813       -2.66010       -3.10403
C          1.35736       -3.69506       -3.50574
C          0.83499       -5.10364        0.64884
H          1.41180       -0.42296        0.81130
H          0.22993        0.77163        0.27519
H          1.69688        0.49926       -0.67783
H         -0.55535       -1.53953       -0.24507
H         -0.36447       -0.51495       -1.66805
H          1.87848       -1.54176       -2.11267
H          2.77586       -3.33650       -0.82704
H          1.89060       -2.53999        0.49935
H         -0.68895       -1.79139       -3.74345
H         -1.30984       -3.44958       -3.73067
H         -1.64838       -2.39449       -2.37198
H          2.27326       -4.11016       -3.07151
H          0.88009       -4.50352       -4.07165
H          1.64621       -2.91049       -4.21356
H          1.81132       -5.59127        0.71051
H          0.63989       -4.57080        1.58313
H          0.06200       -5.86187        0.49928

--Link1--
%chk=JID_651.chk
%mem=8GB
%nprocshared=4
# B3LYP/6-311++G(d,p) empiricaldispersion=gd3bj scf=xqc pop=npa geom=check

CID_147051147_JID_651_Energie_neutraal

0 1

--Link1--
%chk=JID_651.chk
%mem=8GB
%nprocshared=4
# B3LYP/6-311++G(d,p) empiricaldispersion=gd3bj scf=xqc pop=npa geom=check

CID_147051147_JID_651_Energie_kation

1 2

--Link1--
%chk=JID_651.chk
%mem=8GB
%nprocshared=4
# B3LYP/6-311++G(d,p) empiricaldispersion=gd3bj scf=xqc pop=npa geom=check

CID_147051147_JID_651_Energie_anion

-1 2
