%chk=JID_6286.chk
%mem=8GB
%nprocshared=4
# opt freq B3LYP/6-31G(d) empiricaldispersion=gd3bj scf=xqc

CID_121651370_JID_6286_neutraal

0 1
C          1.02435        0.01070        0.09640
C          0.07729       -1.18126        0.10740
C          0.79231       -2.49413        0.47604
C          0.98548       -2.58897        1.99467
C          0.01510       -3.72424       -0.03489
C          0.79620       -4.43481       -1.12474
O          1.66108       -5.26353       -0.83528
N          0.58267       -4.13309       -2.43398
C         -0.30208       -3.16467       -3.05066
C          0.44926       -1.89453       -3.47123
C          0.90721       -1.80060       -4.95354
C         -0.29363       -1.85950       -5.91088
C          1.61678       -0.44044       -5.12419
C          1.87496       -2.92193       -5.32228
O          2.05383       -3.96845       -4.72143
O          2.52577       -2.70595       -6.48254
H          1.45159        0.19422        1.08634
H          0.48636        0.91436       -0.20779
H          1.84504       -0.14556       -0.61101
H         -0.74921       -0.98751        0.80176
H         -0.36936       -1.25480       -0.88634
H          1.79128       -2.48531        0.02032
H          0.02177       -2.59897        2.51615
H          1.52253       -3.50589        2.26023
H          1.56745       -1.74510        2.37734
H         -0.12668       -4.46300        0.76503
H         -0.99422       -3.47353       -0.36996
H          1.23124       -4.60742       -3.06337
H         -0.77653       -3.66517       -3.89796
H         -1.09954       -2.90412       -2.35261
H         -0.22467       -1.04650       -3.28561
H          1.31523       -1.74639       -2.81194
H         -1.06780       -1.14030       -5.62156
H          0.00744       -1.62551       -6.93885
H         -0.74597       -2.85599       -5.93935
H          2.52759       -0.39295       -4.51603
H          1.91086       -0.25988       -6.16436
H          0.96496        0.38754       -4.82259
H          3.08003       -3.50619       -6.60132

--Link1--
%chk=JID_6286.chk
%mem=8GB
%nprocshared=4
# B3LYP/6-311++G(d,p) empiricaldispersion=gd3bj scf=xqc pop=npa geom=check

CID_121651370_JID_6286_Energie_neutraal

0 1

--Link1--
%chk=JID_6286.chk
%mem=8GB
%nprocshared=4
# B3LYP/6-311++G(d,p) empiricaldispersion=gd3bj scf=xqc pop=npa geom=check

CID_121651370_JID_6286_Energie_kation

1 2

--Link1--
%chk=JID_6286.chk
%mem=8GB
%nprocshared=4
# B3LYP/6-311++G(d,p) empiricaldispersion=gd3bj scf=xqc pop=npa geom=check

CID_121651370_JID_6286_Energie_anion

-1 2
