%chk=JID_1243.chk
%mem=8GB
%nprocshared=4
# opt freq B3LYP/6-31G(d) empiricaldispersion=gd3bj scf=xqc

CID_144404699_JID_1243_neutraal

0 1
C          1.04589       -0.01983       -0.08661
O          0.68152       -1.34769        0.26450
S          0.07931       -2.24380       -1.00443
C         -1.88178        1.59897        3.20025
C         -0.46368        1.58426        3.76080
N         -0.23116        0.38440        4.56319
C         -0.40705       -0.83312        3.77091
C         -1.82026       -0.91822        3.20211
C         -2.16903        0.33235        2.39463
C         -3.62803        0.30929        2.00986
O         -4.03202        0.63317        0.89720
H          1.38640        0.49006        0.81906
H          0.18862        0.53116       -0.48788
H          1.86896       -0.02177       -0.80892
H          1.22809       -2.80696       -1.41136
H         -2.01951        2.48426        2.56732
H         -2.60198        1.69516        4.02412
H          0.26985        1.64640        2.94781
H         -0.31750        2.46770        4.39175
H          0.71964        0.40662        4.93322
H         -0.22536       -1.70250        4.41210
H          0.33527       -0.86947        2.96592
H         -2.53582       -1.05005        4.02503
H         -1.91220       -1.80953        2.56957
H         -1.57648        0.34316        1.47213
H         -4.34037        0.05300        2.81363

--Link1--
%chk=JID_1243.chk
%mem=8GB
%nprocshared=4
# B3LYP/6-311++G(d,p) empiricaldispersion=gd3bj scf=xqc pop=npa geom=check

CID_144404699_JID_1243_Energie_neutraal

0 1

--Link1--
%chk=JID_1243.chk
%mem=8GB
%nprocshared=4
# B3LYP/6-311++G(d,p) empiricaldispersion=gd3bj scf=xqc pop=npa geom=check

CID_144404699_JID_1243_Energie_kation

1 2

--Link1--
%chk=JID_1243.chk
%mem=8GB
%nprocshared=4
# B3LYP/6-311++G(d,p) empiricaldispersion=gd3bj scf=xqc pop=npa geom=check

CID_144404699_JID_1243_Energie_anion

-1 2
