%chk=JID_6884.chk
%mem=8GB
%nprocshared=4
# opt freq B3LYP/6-31G(d) empiricaldispersion=gd3bj scf=xqc

CID_104183440_JID_6884_neutraal

0 1
C          0.91811       -0.05725        0.00398
C          0.18309       -1.37543       -0.23420
C          1.16605       -2.50816       -0.56205
C          0.82932       -3.65391        0.40159
C          0.25354       -2.85292        1.58688
N         -0.53530       -1.75718        0.99699
C         -1.90815       -2.17102        0.70860
N          2.00244       -4.54616        0.58376
C          1.92198       -5.75808       -0.27780
C          2.05562       -5.47162       -1.77958
O          3.21741       -4.68435       -2.02712
C          2.29130       -4.94713        1.97652
C          3.72809       -4.55575        2.44118
C          3.93776       -3.03193        2.39424
C          3.90909       -5.02535        3.89833
C          4.80707       -5.23197        1.57763
H          0.21120        0.74525        0.24187
H          1.47215        0.24040       -0.89282
H          1.63345       -0.13250        0.83096
H         -0.50502       -1.22774       -1.07666
H          1.05608       -2.81265       -1.60685
H          2.20231       -2.17574       -0.42299
H         -0.00380       -4.23671       -0.01523
H          1.05433       -2.39411        2.17707
H         -0.33962       -3.47516        2.26671
H         -1.96626       -3.00121       -0.00359
H         -2.41792       -2.47159        1.63056
H         -2.47688       -1.32923        0.29777
H          2.76105       -6.41886       -0.02573
H          1.00151       -6.32129       -0.08045
H          2.15820       -6.40932       -2.33464
H          1.18069       -4.94875       -2.17396
H          3.32287       -4.12645       -1.23033
H          1.57740       -4.52867        2.69127
H          2.16400       -6.03238        2.10072
H          4.93706       -2.76125        2.75457
H          3.84319       -2.63991        1.37663
H          3.21168       -2.51225        3.02802
H          3.79027       -6.11147        3.98137
H          4.90492       -4.76959        4.27781
H          3.17185       -4.55646        4.55984
H          4.68340       -6.32039        1.57125
H          4.77659       -4.88028        0.54144
H          5.81091       -5.01645        1.96175

--Link1--
%chk=JID_6884.chk
%mem=8GB
%nprocshared=4
# B3LYP/6-311++G(d,p) empiricaldispersion=gd3bj scf=xqc pop=npa geom=check

CID_104183440_JID_6884_Energie_neutraal

0 1

--Link1--
%chk=JID_6884.chk
%mem=8GB
%nprocshared=4
# B3LYP/6-311++G(d,p) empiricaldispersion=gd3bj scf=xqc pop=npa geom=check

CID_104183440_JID_6884_Energie_kation

1 2

--Link1--
%chk=JID_6884.chk
%mem=8GB
%nprocshared=4
# B3LYP/6-311++G(d,p) empiricaldispersion=gd3bj scf=xqc pop=npa geom=check

CID_104183440_JID_6884_Energie_anion

-1 2
