%chk=JID_84.chk
%mem=8GB
%nprocshared=4
# opt freq B3LYP/6-31G(d) empiricaldispersion=gd3bj scf=xqc

CID_142132493_JID_84_neutraal

0 1
C          0.92211        0.06209       -0.00887
C          0.15558        1.30591        0.41827
C          0.86597        2.61403        0.04747
C          0.46815        3.19670       -1.30127
C         -0.28585        4.31413       -1.35730
C         -0.67566        5.03837       -2.54729
C         -1.46883        6.11607       -2.51718
C          1.00769        2.53355       -2.48459
C          2.29769        2.67824       -2.82665
C          0.05346        1.69372       -3.29030
H          1.04531        0.00517       -1.09228
H          0.38709       -0.83675        0.31422
H          1.91685        0.04196        0.44813
H         -0.85928        1.28030        0.00455
H          0.04962        1.26833        1.50975
H          0.62644        3.34592        0.83145
H          1.95519        2.49088        0.10139
H         -0.63546        4.74632       -0.42011
H         -0.29442        4.69821       -3.50674
H         -1.72891        6.63204       -3.43611
H         -1.87694        6.50988       -1.59207
H          2.70853        2.19180       -3.70535
H          2.97473        3.29441       -2.24252
H         -0.46410        0.96694       -2.65635
H         -0.70287        2.31479       -3.78003
H          0.57380        1.13111       -4.07325

--Link1--
%chk=JID_84.chk
%mem=8GB
%nprocshared=4
# B3LYP/6-311++G(d,p) empiricaldispersion=gd3bj scf=xqc pop=npa geom=check

CID_142132493_JID_84_Energie_neutraal

0 1

--Link1--
%chk=JID_84.chk
%mem=8GB
%nprocshared=4
# B3LYP/6-311++G(d,p) empiricaldispersion=gd3bj scf=xqc pop=npa geom=check

CID_142132493_JID_84_Energie_kation

1 2

--Link1--
%chk=JID_84.chk
%mem=8GB
%nprocshared=4
# B3LYP/6-311++G(d,p) empiricaldispersion=gd3bj scf=xqc pop=npa geom=check

CID_142132493_JID_84_Energie_anion

-1 2
