%chk=JID_271.chk
%mem=8GB
%nprocshared=4
# opt freq B3LYP/6-31G(d) empiricaldispersion=gd3bj scf=xqc

CID_81014886_JID_271_neutraal

0 1
C          0.90634       -0.03001        0.01806
C          0.22300       -0.50244        1.29592
C          0.87987        0.03121        2.59626
C          0.84927        1.56777        2.59953
C          0.31496       -0.65670        3.90828
C          0.72399       -2.15797        3.88599
C          0.97085       -0.06566        5.17767
C         -1.23810       -0.62199        4.03609
C         -1.88885        0.73278        4.34096
N         -2.98852        1.00072        3.41915
H          0.77002        1.04356       -0.14042
H          0.47548       -0.54406       -0.84753
H          1.97860       -0.24793        0.04092
H         -0.82935       -0.20119        1.25045
H          0.24261       -1.59605        1.28405
H          1.94554       -0.23789        2.54750
H         -0.15656        1.95513        2.41678
H          1.22870        1.99289        3.53124
H          1.49377        1.96610        1.80820
H          1.80186       -2.27350        3.72569
H          0.48110       -2.64816        4.83649
H          0.20242       -2.71708        3.10340
H          0.69096        0.97504        5.35864
H          0.67545       -0.62895        6.07084
H          2.06386       -0.10844        5.10821
H         -1.68286       -1.07444        3.14059
H         -1.53266       -1.30101        4.85023
H         -2.29470        0.71284        5.35888
H         -1.18552        1.56482        4.30662
H         -3.38671        1.91566        3.62601
H         -2.62633        1.05896        2.46764

--Link1--
%chk=JID_271.chk
%mem=8GB
%nprocshared=4
# B3LYP/6-311++G(d,p) empiricaldispersion=gd3bj scf=xqc pop=npa geom=check

CID_81014886_JID_271_Energie_neutraal

0 1

--Link1--
%chk=JID_271.chk
%mem=8GB
%nprocshared=4
# B3LYP/6-311++G(d,p) empiricaldispersion=gd3bj scf=xqc pop=npa geom=check

CID_81014886_JID_271_Energie_kation

1 2

--Link1--
%chk=JID_271.chk
%mem=8GB
%nprocshared=4
# B3LYP/6-311++G(d,p) empiricaldispersion=gd3bj scf=xqc pop=npa geom=check

CID_81014886_JID_271_Energie_anion

-1 2
