%chk=JID_10728.chk
%mem=8GB
%nprocshared=4
# opt freq B3LYP/6-31G(d) empiricaldispersion=gd3bj scf=xqc

CID_135339223_JID_10728_neutraal

0 1
C          1.07275       -0.01522        0.06690
C          0.44969        1.38383        0.20958
C          0.32824        2.01191       -1.19712
C         -0.98852        1.29283        0.79805
C         -1.14559        0.54627        2.12303
O         -0.44029        1.21803        3.17237
C         -0.36432        0.49568        4.32926
O         -0.86577       -0.61213        4.48038
C          0.36488        1.26324        5.42945
C         -0.59440        2.30524        6.04394
C          0.10253        3.06558        7.18614
C          1.35069        3.77720        6.63619
C          2.32778        2.74783        6.04227
C          1.62454        1.98960        4.90376
C          2.74440        1.75206        7.13511
C          1.50485        1.03119        7.68688
C          0.53093        2.06637        8.27409
C          0.80775        0.27917        6.54202
C          1.41058        2.25220        1.04896
O          0.83944        3.50774        1.38754
H          0.41301       -0.68656       -0.49401
H          1.27189       -0.47355        1.04131
H          2.02838        0.03209       -0.46819
H         -0.29999        1.39734       -1.85216
H         -0.11673        3.01205       -1.15063
H          1.30898        2.10527       -1.67745
H         -1.39612        2.30492        0.91514
H         -1.63510        0.78930        0.06644
H         -2.20990        0.52338        2.38688
H         -0.79676       -0.48704        2.01764
H         -0.92915        3.01502        5.27608
H         -1.50021        1.81245        6.42093
H         -0.58646        3.80335        7.61201
H          1.84346        4.34142        7.43740
H          1.05921        4.50383        5.86778
H          3.21369        3.26125        5.65211
H          2.31496        1.26981        4.44554
H          1.35722        2.70811        4.12041
H          3.45260        1.02110        6.72579
H          3.26313        2.27940        7.94496
H          1.80582        0.32207        8.46602
H          1.00851        2.59969        9.10509
H         -0.35087        1.55980        8.68529
H         -0.05885       -0.26526        6.93998
H          1.48387       -0.48055        6.12763
H          1.71601        1.74698        1.96917
H          2.33209        2.45271        0.49010
H          0.18875        3.34014        2.09220

--Link1--
%chk=JID_10728.chk
%mem=8GB
%nprocshared=4
# B3LYP/6-311++G(d,p) empiricaldispersion=gd3bj scf=xqc pop=npa geom=check

CID_135339223_JID_10728_Energie_neutraal

0 1

--Link1--
%chk=JID_10728.chk
%mem=8GB
%nprocshared=4
# B3LYP/6-311++G(d,p) empiricaldispersion=gd3bj scf=xqc pop=npa geom=check

CID_135339223_JID_10728_Energie_kation

1 2

--Link1--
%chk=JID_10728.chk
%mem=8GB
%nprocshared=4
# B3LYP/6-311++G(d,p) empiricaldispersion=gd3bj scf=xqc pop=npa geom=check

CID_135339223_JID_10728_Energie_anion

-1 2
