%chk=JID_3427.chk
%mem=8GB
%nprocshared=4
# opt freq B3LYP/6-31G(d) empiricaldispersion=gd3bj scf=xqc

CID_67867875_JID_3427_neutraal

0 1
C          1.05242       -0.06856        0.05052
C          0.44239        0.44207       -1.24483
C          0.73452       -0.45103       -2.45085
C          0.20047       -1.88971       -2.39111
C         -1.32199       -2.04220       -2.26877
O         -1.95460       -1.19458       -3.22954
C         -3.37430       -1.28034       -3.11552
C         -3.75307       -2.34146       -2.08582
C         -3.12515       -1.87751       -0.77649
O         -1.71914       -1.70652       -0.93890
C         -3.04448       -3.62267       -2.53730
O         -1.62912       -3.41764       -2.52856
C         -3.36257       -4.84093       -1.68082
H          0.61608       -1.02388        0.35493
H          0.87551        0.64975        0.85747
H          2.13413       -0.20150       -0.05190
H         -0.63617        0.58206       -1.12015
H          0.85556        1.43752       -1.44949
H          0.33872        0.03988       -3.34850
H          1.82191       -0.49990       -2.59324
H          0.52407       -2.38782       -3.31541
H          0.69106       -2.43334       -1.57422
H         -3.75633       -0.29274       -2.83428
H         -3.78055       -1.51882       -4.10433
H         -4.83728       -2.46243       -2.00616
H         -3.54553       -0.91831       -0.45431
H         -3.29500       -2.58888        0.03741
H         -3.33185       -3.85785       -3.56987
H         -4.44116       -5.01454       -1.62223
H         -2.89138       -5.73269       -2.10908
H         -2.96092       -4.74250       -0.66752

--Link1--
%chk=JID_3427.chk
%mem=8GB
%nprocshared=4
# B3LYP/6-311++G(d,p) empiricaldispersion=gd3bj scf=xqc pop=npa geom=check

CID_67867875_JID_3427_Energie_neutraal

0 1

--Link1--
%chk=JID_3427.chk
%mem=8GB
%nprocshared=4
# B3LYP/6-311++G(d,p) empiricaldispersion=gd3bj scf=xqc pop=npa geom=check

CID_67867875_JID_3427_Energie_kation

1 2

--Link1--
%chk=JID_3427.chk
%mem=8GB
%nprocshared=4
# B3LYP/6-311++G(d,p) empiricaldispersion=gd3bj scf=xqc pop=npa geom=check

CID_67867875_JID_3427_Energie_anion

-1 2
