%chk=JID_9537.chk
%mem=8GB
%nprocshared=4
# opt freq B3LYP/6-31G(d) empiricaldispersion=gd3bj scf=xqc

CID_115154241_JID_9537_neutraal

0 1
C         -3.57200       -0.78000        0.01700
C         -2.17860       -0.23611       -0.07337
C         -1.07661       -1.10084       -0.02400
C          0.23626       -0.60950       -0.11957
C          0.44340        0.77663       -0.27951
C         -0.66447        1.63357       -0.35597
C         -1.96308        1.13133       -0.25940
C          1.75477        1.27342       -0.34976
C          2.86788        0.42008       -0.27569
C          2.64737       -0.95363       -0.12017
C          1.34768       -1.46287       -0.04888
C          4.27700        0.95930       -0.24825
N          4.43724        2.14495       -1.06416
C          5.18090        3.26106       -0.83200
O          5.20643        4.13950       -1.69451
C          5.91952        3.42536        0.48002
C          5.20499        4.41122        1.41118
C          3.82093        3.93270        1.84926
N          6.03129        4.63191        2.60717
H         -3.91246       -1.10404       -0.97127
H         -3.61276       -1.63176        0.70411
H         -4.26631       -0.02350        0.39769
H         -1.24461       -2.16909        0.09965
H         -0.52475        2.70392       -0.49048
H         -2.80411        1.81791       -0.32486
H          1.90615        2.34653       -0.45216
H          3.48623       -1.64205       -0.03987
H          1.20855       -2.53453        0.07663
H          4.54535        1.15377        0.79172
H          4.97522        0.21739       -0.65128
H          4.02981        2.12502       -1.99196
H          6.09883        2.46466        0.96904
H          6.91674        3.80976        0.22570
H          5.09115        5.37292        0.89677
H          3.86656        2.95260        2.33625
H          3.36761        4.63688        2.55637
H          3.14280        3.86007        0.99430
H          5.59396        5.34389        3.19291
H          6.06126        3.78526        3.17428

--Link1--
%chk=JID_9537.chk
%mem=8GB
%nprocshared=4
# B3LYP/6-311++G(d,p) empiricaldispersion=gd3bj scf=xqc pop=npa geom=check

CID_115154241_JID_9537_Energie_neutraal

0 1

--Link1--
%chk=JID_9537.chk
%mem=8GB
%nprocshared=4
# B3LYP/6-311++G(d,p) empiricaldispersion=gd3bj scf=xqc pop=npa geom=check

CID_115154241_JID_9537_Energie_kation

1 2

--Link1--
%chk=JID_9537.chk
%mem=8GB
%nprocshared=4
# B3LYP/6-311++G(d,p) empiricaldispersion=gd3bj scf=xqc pop=npa geom=check

CID_115154241_JID_9537_Energie_anion

-1 2
