%chk=JID_808.chk
%mem=8GB
%nprocshared=4
# opt freq B3LYP/6-31G(d) empiricaldispersion=gd3bj scf=xqc

CID_14342381_JID_808_neutraal

0 1
C         -2.57700       -0.70400        0.00100
C         -2.01685        0.71659       -0.19173
C         -0.55096        0.49783       -0.08377
C         -0.23949       -0.79627       -0.10268
C         -1.41764       -1.68782       -0.22331
O          1.05902       -1.29836       -0.03351
C          2.09044       -0.39326        0.05828
O          3.26473       -0.74411        0.12115
C          1.74998        1.05267        0.07971
C          0.48027        1.47436        0.01168
H         -3.41594       -0.90425       -0.67397
H         -2.95802       -0.81240        1.02500
H         -2.27967        1.11370       -1.17783
H         -2.39784        1.39352        0.57919
H         -1.46391       -2.13750       -1.22005
H         -1.42072       -2.48020        0.53068
H          2.58538        1.73697        0.15220
H          0.22847        2.52869        0.02604

--Link1--
%chk=JID_808.chk
%mem=8GB
%nprocshared=4
# B3LYP/6-311++G(d,p) empiricaldispersion=gd3bj scf=xqc pop=npa geom=check

CID_14342381_JID_808_Energie_neutraal

0 1

--Link1--
%chk=JID_808.chk
%mem=8GB
%nprocshared=4
# B3LYP/6-311++G(d,p) empiricaldispersion=gd3bj scf=xqc pop=npa geom=check

CID_14342381_JID_808_Energie_kation

1 2

--Link1--
%chk=JID_808.chk
%mem=8GB
%nprocshared=4
# B3LYP/6-311++G(d,p) empiricaldispersion=gd3bj scf=xqc pop=npa geom=check

CID_14342381_JID_808_Energie_anion

-1 2
