%chk=JID_8765.chk
%mem=8GB
%nprocshared=4
# opt freq B3LYP/6-31G(d) empiricaldispersion=gd3bj scf=xqc

CID_113240471_JID_8765_neutraal

0 1
C          1.07892       -0.00622        0.06110
N          0.50916        1.16554       -0.58625
C         -0.88227        1.06382       -0.99764
C          0.84342        2.37137        0.03923
N         -0.05306        3.37103        0.05117
C          0.30611        4.52033        0.64382
C          1.54099        4.72894        1.19729
C          2.42828        3.68050        1.11232
N          2.07360        2.50258        0.57008
N          3.71572        3.86396        1.65252
C          4.66339        2.76888        1.41801
C          5.14675        2.71336       -0.04027
N          5.69570        3.97224       -0.52828
C          6.88991        4.57389       -0.25906
O          7.16283        5.65121       -0.77845
C          7.83151        3.97433        0.71731
C          8.34721        2.55749        0.68422
C          9.23869        3.67080        0.23543
H          0.79712       -0.91536       -0.48220
H          0.71917       -0.10738        1.09172
H          2.17457        0.02356        0.06509
H         -1.56129        1.08309       -0.13746
H         -1.15490        1.86523       -1.69446
H         -1.04887        0.12220       -1.53326
H         -0.45384        5.29507        0.65579
H          1.79905        5.66676        1.66831
H          4.10106        4.74552        1.31854
H          5.52340        2.94352        2.07398
H          4.24303        1.80252        1.72188
H          5.89183        1.92571       -0.15686
H          4.32254        2.46529       -0.71640
H          5.13670        4.48825       -1.19732
H          7.77697        4.45613        1.68999
H          8.56952        2.08574        1.63554
H          8.02069        1.86826       -0.08313
H          9.44551        3.75112       -0.82737
H         10.06767        3.96057        0.86914

--Link1--
%chk=JID_8765.chk
%mem=8GB
%nprocshared=4
# B3LYP/6-311++G(d,p) empiricaldispersion=gd3bj scf=xqc pop=npa geom=check

CID_113240471_JID_8765_Energie_neutraal

0 1

--Link1--
%chk=JID_8765.chk
%mem=8GB
%nprocshared=4
# B3LYP/6-311++G(d,p) empiricaldispersion=gd3bj scf=xqc pop=npa geom=check

CID_113240471_JID_8765_Energie_kation

1 2

--Link1--
%chk=JID_8765.chk
%mem=8GB
%nprocshared=4
# B3LYP/6-311++G(d,p) empiricaldispersion=gd3bj scf=xqc pop=npa geom=check

CID_113240471_JID_8765_Energie_anion

-1 2
