%chk=JID_3101.chk
%mem=8GB
%nprocshared=4
# opt freq B3LYP/6-31G(d) empiricaldispersion=gd3bj scf=xqc

CID_112661203_JID_3101_neutraal

0 1
C          1.05744       -0.03744       -0.07279
C          0.79183        1.44360        0.22353
C          1.76193        2.40991       -0.51070
S          2.06449        2.18850       -2.30381
C          3.50912        1.10045       -2.25126
N         -0.63739        1.78319        0.22006
C         -1.02829        2.97578        0.94153
C         -1.53292        1.30946       -0.82468
C         -1.67493        2.05846       -2.14386
C         -2.58729        3.28264       -2.11532
C         -1.13314        3.45975       -2.40097
C         -1.84652        1.14905       -3.34950
N         -0.60923        0.43459       -3.61661
H          0.87222       -0.30162       -1.11725
H          0.42453       -0.67766        0.55284
H          2.09583       -0.29287        0.16461
H          1.08160        1.54199        1.28097
H          1.42706        3.44311       -0.37227
H          2.73737        2.36517       -0.01068
H          4.30959        1.55188       -1.65957
H          3.25294        0.12169       -1.84284
H          3.87783        0.95518       -3.27047
H         -0.72732        3.89943        0.44353
H         -2.11225        3.01044        1.09702
H         -0.58331        2.98402        1.94312
H         -1.30827        0.25745       -1.03139
H         -2.54144        1.24415       -0.39070
H         -3.28664        3.43309       -2.93060
H         -2.96213        3.63792       -1.16245
H         -0.52288        3.95554       -1.66249
H         -0.84077        3.71724       -3.41434
H         -2.65747        0.43458       -3.17132
H         -2.11666        1.73189       -4.23807
H         -0.62469        0.07257       -4.56700
H          0.17035        1.09720       -3.57358

--Link1--
%chk=JID_3101.chk
%mem=8GB
%nprocshared=4
# B3LYP/6-311++G(d,p) empiricaldispersion=gd3bj scf=xqc pop=npa geom=check

CID_112661203_JID_3101_Energie_neutraal

0 1

--Link1--
%chk=JID_3101.chk
%mem=8GB
%nprocshared=4
# B3LYP/6-311++G(d,p) empiricaldispersion=gd3bj scf=xqc pop=npa geom=check

CID_112661203_JID_3101_Energie_kation

1 2

--Link1--
%chk=JID_3101.chk
%mem=8GB
%nprocshared=4
# B3LYP/6-311++G(d,p) empiricaldispersion=gd3bj scf=xqc pop=npa geom=check

CID_112661203_JID_3101_Energie_anion

-1 2
