%chk=JID_9691.chk
%mem=8GB
%nprocshared=4
# opt freq B3LYP/6-31G(d) empiricaldispersion=gd3bj scf=xqc

CID_144358000_JID_9691_neutraal

0 1
C          0.98646       -0.02648        0.09547
C          0.36033        0.56378       -1.14761
C          5.01213       -1.25215       -0.69609
C          3.94432       -2.31067       -0.70262
O          3.78893       -3.08522        0.23860
N          3.12374       -2.38795       -1.78905
C          3.25858       -1.70048       -3.06302
C          4.14482       -2.46516       -4.05292
C          3.52207       -3.77320       -4.50669
C          3.92157       -4.94774       -3.84274
C          3.37914       -6.18013       -4.18589
C          2.42899       -6.25900       -5.19866
C          2.00333       -5.10829       -5.87762
C          2.54046       -3.84184       -5.53770
C          2.06399       -2.71777       -6.25842
C          1.06959       -2.81892       -7.23853
C          0.61095       -4.08303       -7.59172
C          1.05414       -5.21353       -6.90449
N          0.71809       -1.70169       -8.00640
H          0.46780        0.32704        0.99158
H          2.03861        0.26319        0.17059
H          0.92873       -1.11867        0.07387
H         -0.69095        0.27074       -1.22445
H          0.41242        1.65630       -1.12225
H          0.88105        0.21555       -2.04414
H          5.58478       -1.32143        0.23359
H          4.55650       -0.25990       -0.74699
H          5.69822       -1.39833       -1.53365
H          2.45983       -3.15370       -1.73886
H          2.24611       -1.56642       -3.45742
H          3.68108       -0.70631       -2.88944
H          4.36045       -1.83826       -4.92554
H          5.12427       -2.66581       -3.59976
H          4.65901       -4.90477       -3.04269
H          3.69649       -7.07946       -3.66449
H          2.02019       -7.23393       -5.45590
H          2.47188       -1.73186       -6.05728
H         -0.09965       -4.20371       -8.40465
H          0.65794       -6.18536       -7.19112
H          0.81693       -0.81760       -7.51822
H         -0.18541       -1.78789       -8.46199

--Link1--
%chk=JID_9691.chk
%mem=8GB
%nprocshared=4
# B3LYP/6-311++G(d,p) empiricaldispersion=gd3bj scf=xqc pop=npa geom=check

CID_144358000_JID_9691_Energie_neutraal

0 1

--Link1--
%chk=JID_9691.chk
%mem=8GB
%nprocshared=4
# B3LYP/6-311++G(d,p) empiricaldispersion=gd3bj scf=xqc pop=npa geom=check

CID_144358000_JID_9691_Energie_kation

1 2

--Link1--
%chk=JID_9691.chk
%mem=8GB
%nprocshared=4
# B3LYP/6-311++G(d,p) empiricaldispersion=gd3bj scf=xqc pop=npa geom=check

CID_144358000_JID_9691_Energie_anion

-1 2
