%chk=JID_10091.chk
%mem=8GB
%nprocshared=4
# opt freq B3LYP/6-31G(d) empiricaldispersion=gd3bj scf=xqc

CID_47095982_JID_10091_neutraal

0 1
C          1.07754        0.02716       -0.05701
C          0.56232        0.03583       -1.49012
C          0.72180       -1.30413       -2.25337
C         -0.19407       -2.37129       -1.61783
C         -0.07319       -3.71800       -2.31926
C          1.38272       -4.15727       -2.33601
C          2.25087       -3.08858       -2.98315
N          2.12374       -1.77860       -2.33346
C          3.05624       -0.84685       -2.83328
O          2.72782        0.01873       -3.64881
C          4.44836       -0.84244       -2.15847
C          4.90929       -2.08475       -1.40680
S          5.76127       -0.29167       -3.31864
C          5.35100       -1.18505       -4.76198
N          4.91065       -2.42404       -4.72588
N          4.57738       -2.88950       -5.98273
C          4.80992       -1.98942       -6.91491
S          5.48000       -0.52313       -6.33546
S          4.46768       -2.26882       -8.60643
C          3.27266       -3.61700       -8.47857
H          0.50101       -0.65259        0.57627
H          0.98699        1.02933        0.37511
H          2.13085       -0.26221       -0.00644
H         -0.49912        0.31434       -1.47831
H          1.07119        0.84210       -2.02914
H          0.38535       -1.13125       -3.28564
H         -1.23782       -2.03739       -1.64979
H          0.06503       -2.51680       -0.56251
H         -0.68403       -4.46592       -1.80184
H         -0.45378       -3.64024       -3.34470
H          1.72456       -4.33889       -1.30954
H          1.48142       -5.10076       -2.88389
H          3.28893       -3.42095       -2.96673
H          1.98146       -2.96670       -4.04091
H          4.37500       -0.04302       -1.40932
H          5.16678       -2.91385       -2.07197
H          5.79866       -1.86411       -0.80440
H          4.13850       -2.43765       -0.71353
H          3.73534       -4.50645       -8.04222
H          2.41577       -3.31570       -7.86905
H          2.91103       -3.87192       -9.47840

--Link1--
%chk=JID_10091.chk
%mem=8GB
%nprocshared=4
# B3LYP/6-311++G(d,p) empiricaldispersion=gd3bj scf=xqc pop=npa geom=check

CID_47095982_JID_10091_Energie_neutraal

0 1

--Link1--
%chk=JID_10091.chk
%mem=8GB
%nprocshared=4
# B3LYP/6-311++G(d,p) empiricaldispersion=gd3bj scf=xqc pop=npa geom=check

CID_47095982_JID_10091_Energie_kation

1 2

--Link1--
%chk=JID_10091.chk
%mem=8GB
%nprocshared=4
# B3LYP/6-311++G(d,p) empiricaldispersion=gd3bj scf=xqc pop=npa geom=check

CID_47095982_JID_10091_Energie_anion

-1 2
