%chk=JID_10345.chk
%mem=8GB
%nprocshared=4
# opt freq B3LYP/6-31G(d) empiricaldispersion=gd3bj scf=xqc

CID_116986002_JID_10345_neutraal

0 1
C          1.05758       -0.05848        0.05714
N          0.76692       -0.78393        1.28155
C         -0.62334       -0.65047        1.71453
C         -1.65422       -1.34721        0.82795
C         -1.38376       -2.75651        0.30160
C         -2.35323       -2.57267        1.42039
C         -2.53650       -0.40881       -0.00068
C         -2.31517       -0.20291       -1.37474
C         -3.12679        0.67349       -2.13047
C         -4.17148        1.34157       -1.49046
C         -4.42998        1.15805       -0.12481
C         -3.60173        0.28491        0.59269
N         -4.79347        2.12237       -2.44415
C         -4.18646        1.96913       -3.67501
C         -3.13506        1.06780       -3.50410
C         -2.34606        0.73842       -4.61434
N         -2.59673        1.28139       -5.83079
C         -3.62460        2.14695       -5.95444
C         -4.46323        2.53762       -4.92168
C         -5.93231        2.98539       -2.21291
H          0.74625        0.98896        0.12303
H          0.58670       -0.52355       -0.81200
H          2.13830       -0.06628       -0.11674
H          1.00568       -1.76582        1.17209
H         -0.68441       -1.06896        2.72668
H         -0.86998        0.41193        1.83784
H         -1.78496       -3.04131       -0.66530
H         -0.44760       -3.24895        0.53393
H         -2.05935       -2.92107        2.40432
H         -3.40448       -2.73240        1.20410
H         -1.50546       -0.73062       -1.87059
H         -5.24258        1.66938        0.38035
H         -3.79805        0.14261        1.65463
H         -1.51309        0.04725       -4.55950
H         -3.76759        2.54184       -6.95715
H         -5.27295        3.23683       -5.08338
H         -5.72604        3.96395       -2.65470
H         -6.80647        2.52751       -2.68293
H         -6.10645        3.11078       -1.14314

--Link1--
%chk=JID_10345.chk
%mem=8GB
%nprocshared=4
# B3LYP/6-311++G(d,p) empiricaldispersion=gd3bj scf=xqc pop=npa geom=check

CID_116986002_JID_10345_Energie_neutraal

0 1

--Link1--
%chk=JID_10345.chk
%mem=8GB
%nprocshared=4
# B3LYP/6-311++G(d,p) empiricaldispersion=gd3bj scf=xqc pop=npa geom=check

CID_116986002_JID_10345_Energie_kation

1 2

--Link1--
%chk=JID_10345.chk
%mem=8GB
%nprocshared=4
# B3LYP/6-311++G(d,p) empiricaldispersion=gd3bj scf=xqc pop=npa geom=check

CID_116986002_JID_10345_Energie_anion

-1 2
