%chk=JID_2692.chk
%mem=8GB
%nprocshared=4
# opt freq B3LYP/6-31G(d) empiricaldispersion=gd3bj scf=xqc

CID_154554741_JID_2692_neutraal

0 1
C          0.97701        0.02498       -0.09406
N          0.75225        0.61199       -1.40406
C         -0.62534        1.07568       -1.59621
C         -0.96387        2.40777       -0.91797
C         -0.24541        3.56700       -1.60546
N         -0.85214        4.18121       -2.57564
N          1.05103        3.91401       -1.24617
C          1.45744        3.96107        0.17079
C          2.99323        3.96760        0.32430
N          3.66278        5.03117       -0.44424
C          3.26805        4.89338       -1.85982
C          1.74237        4.92672       -2.07898
H          0.33803       -0.85053        0.06034
H          0.80365        0.73709        0.71706
H          2.01551       -0.31323       -0.02221
H          1.38997        1.39831       -1.55337
H         -0.78368        1.17915       -2.67660
H         -1.32907        0.30355       -1.26197
H         -2.04467        2.57701       -1.00513
H         -0.75584        2.38240        0.15276
H         -1.78332        3.78676       -2.73669
H          1.03315        4.86070        0.63368
H          1.08234        3.09917        0.72634
H          3.39744        2.99513        0.01558
H          3.24723        4.08950        1.38317
H          3.32473        5.93388       -0.10901
H          3.67795        3.95499       -2.25433
H          3.73237        5.70378       -2.43245
H          1.55653        4.73797       -3.14318
H          1.35145        5.92312       -1.83757

--Link1--
%chk=JID_2692.chk
%mem=8GB
%nprocshared=4
# B3LYP/6-311++G(d,p) empiricaldispersion=gd3bj scf=xqc pop=npa geom=check

CID_154554741_JID_2692_Energie_neutraal

0 1

--Link1--
%chk=JID_2692.chk
%mem=8GB
%nprocshared=4
# B3LYP/6-311++G(d,p) empiricaldispersion=gd3bj scf=xqc pop=npa geom=check

CID_154554741_JID_2692_Energie_kation

1 2

--Link1--
%chk=JID_2692.chk
%mem=8GB
%nprocshared=4
# B3LYP/6-311++G(d,p) empiricaldispersion=gd3bj scf=xqc pop=npa geom=check

CID_154554741_JID_2692_Energie_anion

-1 2
