%chk=JID_8639.chk
%mem=8GB
%nprocshared=4
# opt freq B3LYP/6-31G(d) empiricaldispersion=gd3bj scf=xqc

CID_132176770_JID_8639_neutraal

0 1
C          0.93621       -0.02966       -0.07107
C          0.14321       -1.30922       -0.35630
C          1.06467       -2.49003       -0.67988
C          1.76044       -3.01824        0.56910
C          0.76680       -3.28366        1.70186
N         -0.04666       -2.09149        2.00708
C         -0.78984       -1.66907        0.81527
C         -0.83513       -2.28241        3.24708
C         -1.01302       -0.97450        4.03306
C         -2.21676       -0.14092        3.62419
N         -3.45618       -0.91858        3.54488
C         -3.36787       -2.15121        2.76830
C         -2.17506       -3.02426        3.14594
C         -4.63536       -0.19826        3.73389
O         -4.60690        0.99825        4.04830
C         -6.01099       -0.86051        3.59524
C         -6.38021       -1.24221        2.16614
C         -6.24903       -1.97227        4.61136
H          0.25641        0.81257        0.09735
H          1.57499        0.22518       -0.92337
H          1.57556       -0.12255        0.81212
H         -0.47858       -1.11403       -1.23977
H          0.46456       -3.29838       -1.11729
H          1.80839       -2.20807       -1.43400
H          2.51764       -2.29942        0.90523
H          2.29511       -3.94388        0.32630
H          1.35235       -3.57930        2.58111
H          0.12440       -4.13393        1.43960
H         -1.39911       -0.78824        1.02530
H         -1.46985       -2.46442        0.48457
H         -0.20534       -2.89576        3.90822
H         -1.13573       -1.23836        5.09325
H         -0.10237       -0.36462        3.98338
H         -2.06337        0.34648        2.65684
H         -2.32924        0.66674        4.35722
H         -3.34701       -1.86884        1.71172
H         -4.26079       -2.75587        2.90462
H         -2.10245       -3.87668        2.46063
H         -2.38504       -3.45813        4.13401
H         -6.71703       -0.06159        3.87064
H         -5.99100       -2.21832        1.86832
H         -7.46985       -1.29558        2.06201
H         -6.01140       -0.49870        1.45170
H         -5.95433       -1.64746        5.61524
H         -7.31139       -2.23774        4.64250
H         -5.69273       -2.88501        4.38844

--Link1--
%chk=JID_8639.chk
%mem=8GB
%nprocshared=4
# B3LYP/6-311++G(d,p) empiricaldispersion=gd3bj scf=xqc pop=npa geom=check

CID_132176770_JID_8639_Energie_neutraal

0 1

--Link1--
%chk=JID_8639.chk
%mem=8GB
%nprocshared=4
# B3LYP/6-311++G(d,p) empiricaldispersion=gd3bj scf=xqc pop=npa geom=check

CID_132176770_JID_8639_Energie_kation

1 2

--Link1--
%chk=JID_8639.chk
%mem=8GB
%nprocshared=4
# B3LYP/6-311++G(d,p) empiricaldispersion=gd3bj scf=xqc pop=npa geom=check

CID_132176770_JID_8639_Energie_anion

-1 2
