%chk=JID_6125.chk
%mem=8GB
%nprocshared=4
# opt freq B3LYP/6-31G(d) empiricaldispersion=gd3bj scf=xqc

CID_103028092_JID_6125_neutraal

0 1
C          0.94600       -0.05707       -0.06187
C          0.57632       -1.35961       -0.74106
C          1.33573       -2.55918       -0.20208
C          0.38628       -3.68817       -0.56143
C         -0.95899       -3.04918       -0.26406
O         -0.81903       -1.64537       -0.53691
C          0.65748       -4.99722        0.17980
C         -0.33659       -6.12612       -0.14679
C         -0.38700       -6.58734       -1.61058
C          0.76430       -7.45762       -1.99723
C          1.01371       -8.77962       -1.68083
C          2.23352       -9.08452       -2.30331
N          2.73200       -8.04573       -2.97121
N          1.82002       -7.06868       -2.78972
C          2.05184       -5.78787       -3.41579
O          1.99435       -5.39346       -0.11010
H          0.72735       -0.09661        1.01085
H          0.35238        0.76745       -0.47084
H          2.00681        0.17379       -0.19689
H          0.73139       -1.26751       -1.82289
H          2.32701       -2.66211       -0.65355
H          1.45759       -2.49239        0.88622
H          0.48158       -3.84375       -1.64362
H         -1.24289       -3.15409        0.78879
H         -1.76272       -3.45689       -0.88413
H          0.61330       -4.81349        1.26046
H         -0.10208       -6.98982        0.48943
H         -1.34239       -5.79708        0.14239
H         -1.29993       -7.18509       -1.73888
H         -0.50578       -5.73707       -2.28663
H          0.39661       -9.43289       -1.08074
H          2.78117      -10.01794       -2.29924
H          2.51601       -5.12317       -2.68524
H          2.71989       -5.92274       -4.27113
H          1.10418       -5.37804       -3.76960
H          2.12217       -6.30735        0.20351

--Link1--
%chk=JID_6125.chk
%mem=8GB
%nprocshared=4
# B3LYP/6-311++G(d,p) empiricaldispersion=gd3bj scf=xqc pop=npa geom=check

CID_103028092_JID_6125_Energie_neutraal

0 1

--Link1--
%chk=JID_6125.chk
%mem=8GB
%nprocshared=4
# B3LYP/6-311++G(d,p) empiricaldispersion=gd3bj scf=xqc pop=npa geom=check

CID_103028092_JID_6125_Energie_kation

1 2

--Link1--
%chk=JID_6125.chk
%mem=8GB
%nprocshared=4
# B3LYP/6-311++G(d,p) empiricaldispersion=gd3bj scf=xqc pop=npa geom=check

CID_103028092_JID_6125_Energie_anion

-1 2
