%chk=JID_5167.chk
%mem=8GB
%nprocshared=4
# opt freq B3LYP/6-31G(d) empiricaldispersion=gd3bj scf=xqc

CID_149932040_JID_5167_neutraal

0 1
C          0.96551        0.03201        0.08824
N          0.47398       -0.16238        1.44567
C         -0.65998        0.65269        1.86668
C         -1.86186       -0.08166        2.41180
C         -2.78351        0.68484        3.15460
C         -3.96779        0.12927        3.65068
C         -4.26492       -1.21118        3.42192
C         -3.37986       -1.99729        2.69047
C         -2.19942       -1.42683        2.18518
N         -1.37154       -2.30575        1.38109
O         -0.73248       -3.17919        1.98428
O         -1.44545       -2.17353        0.15112
N          1.42360       -0.62566        2.34284
N          1.11270       -0.72613        3.55038
N          0.83442       -0.80443        4.65313
H          1.44081        1.01447        0.01977
H          0.13109       -0.02810       -0.61555
H          1.69127       -0.74959       -0.15486
H         -0.28309        1.37336        2.60395
H         -1.00114        1.23754        1.00326
H         -2.58915        1.74044        3.34494
H         -4.66272        0.75009        4.21253
H         -5.18803       -1.63907        3.80551
H         -3.61593       -3.04309        2.50333

--Link1--
%chk=JID_5167.chk
%mem=8GB
%nprocshared=4
# B3LYP/6-311++G(d,p) empiricaldispersion=gd3bj scf=xqc pop=npa geom=check

CID_149932040_JID_5167_Energie_neutraal

0 1

--Link1--
%chk=JID_5167.chk
%mem=8GB
%nprocshared=4
# B3LYP/6-311++G(d,p) empiricaldispersion=gd3bj scf=xqc pop=npa geom=check

CID_149932040_JID_5167_Energie_kation

1 2

--Link1--
%chk=JID_5167.chk
%mem=8GB
%nprocshared=4
# B3LYP/6-311++G(d,p) empiricaldispersion=gd3bj scf=xqc pop=npa geom=check

CID_149932040_JID_5167_Energie_anion

-1 2
