%chk=JID_6391.chk
%mem=8GB
%nprocshared=4
# opt freq B3LYP/6-31G(d) empiricaldispersion=gd3bj scf=xqc

CID_121953884_JID_6391_neutraal

0 1
C          1.05275       -0.06879        0.04986
C         -0.04625        0.83747        0.60667
C          0.48024        2.26868        0.73376
C         -1.31681        0.82464       -0.25642
C         -2.04850       -0.49903       -0.17759
O         -2.81521       -0.74377        0.75436
N         -1.80580       -1.47090       -1.09603
C         -1.19883       -1.36441       -2.43042
C         -0.29659       -2.57034       -2.72507
O         -0.99481       -3.80393       -2.50575
C         -0.54100       -4.51969       -1.35698
C          0.70004       -5.28135       -1.70454
C          1.86218       -5.18369       -1.04536
C         -2.24995       -1.25116       -3.53677
O         -2.01613       -1.07917       -4.72412
O         -3.52537       -1.35556       -3.10882
H          1.31523        0.20673       -0.97684
H          0.74326       -1.11794        0.05769
H          1.96022        0.00406        0.65919
H         -0.29712        0.47955        1.61360
H          0.75262        2.67992       -0.24432
H         -0.27590        2.92394        1.17901
H          1.36757        2.30225        1.37484
H         -2.02108        1.58315        0.11116
H         -1.10426        1.11014       -1.28923
H         -2.43683       -2.25834       -0.98526
H         -0.60078       -0.45286       -2.48831
H          0.02377       -2.56298       -3.77280
H          0.61025       -2.51252       -2.11110
H         -0.40625       -3.84783       -0.50170
H         -1.32607       -5.23520       -1.09131
H          0.62500       -5.95736       -2.55322
H          2.72366       -5.76955       -1.35181
H          1.98203       -4.52520       -0.19048
H         -4.06661       -1.29005       -3.92306

--Link1--
%chk=JID_6391.chk
%mem=8GB
%nprocshared=4
# B3LYP/6-311++G(d,p) empiricaldispersion=gd3bj scf=xqc pop=npa geom=check

CID_121953884_JID_6391_Energie_neutraal

0 1

--Link1--
%chk=JID_6391.chk
%mem=8GB
%nprocshared=4
# B3LYP/6-311++G(d,p) empiricaldispersion=gd3bj scf=xqc pop=npa geom=check

CID_121953884_JID_6391_Energie_kation

1 2

--Link1--
%chk=JID_6391.chk
%mem=8GB
%nprocshared=4
# B3LYP/6-311++G(d,p) empiricaldispersion=gd3bj scf=xqc pop=npa geom=check

CID_121953884_JID_6391_Energie_anion

-1 2
