%chk=JID_7250.chk
%mem=8GB
%nprocshared=4
# opt freq B3LYP/6-31G(d) empiricaldispersion=gd3bj scf=xqc

CID_136998917_JID_7250_neutraal

0 1
C          1.69800        0.03400       -0.78800
C          0.61073       -0.54526        0.11544
C         -0.18555       -1.64232       -0.60817
C         -1.50084       -0.98747       -0.99579
C         -1.79201       -0.09045        0.19310
C         -0.42963        0.53076        0.52264
C         -0.34434        0.93118        2.00036
N          0.88369        1.69288        2.21681
C          1.25939        1.95100        3.41554
N          2.38369        2.67150        3.69473
C          2.47942        3.20716        5.04699
C          3.94916        3.41484        5.42804
C          4.24464        4.84280        4.99391
C          2.98390        5.58616        5.39771
C          1.84039        4.61334        5.10739
C          1.78233        2.16798        5.93523
S          0.43175        1.51020        4.90281
H          2.42132       -0.74005       -1.06535
H          1.27550        0.44626       -1.71065
H          2.24282        0.83404       -0.27660
H          1.10012       -0.98119        0.99506
H          0.33532       -2.06435       -1.47318
H         -0.38275       -2.46489        0.09093
H         -2.29420       -1.72010       -1.16853
H         -1.37721       -0.39007       -1.90652
H         -2.16726       -0.68970        1.03181
H         -2.54325        0.67029       -0.04069
H         -0.29958        1.42793       -0.09828
H         -1.21034        1.55585        2.25157
H         -0.37556        0.02570        2.61835
H          2.73739        3.21425        2.91613
H          4.08182        3.33243        6.51422
H          4.62720        2.70059        4.94917
H          4.38851        4.89469        3.90855
H          5.13764        5.24760        5.47863
H          2.86849        6.53311        4.86236
H          3.01165        5.81032        6.47114
H          1.35989        4.88277        4.15889
H          1.07794        4.69786        5.88971
H          2.45348        1.33477        6.17119
H          1.40086        2.58535        6.87131

--Link1--
%chk=JID_7250.chk
%mem=8GB
%nprocshared=4
# B3LYP/6-311++G(d,p) empiricaldispersion=gd3bj scf=xqc pop=npa geom=check

CID_136998917_JID_7250_Energie_neutraal

0 1

--Link1--
%chk=JID_7250.chk
%mem=8GB
%nprocshared=4
# B3LYP/6-311++G(d,p) empiricaldispersion=gd3bj scf=xqc pop=npa geom=check

CID_136998917_JID_7250_Energie_kation

1 2

--Link1--
%chk=JID_7250.chk
%mem=8GB
%nprocshared=4
# B3LYP/6-311++G(d,p) empiricaldispersion=gd3bj scf=xqc pop=npa geom=check

CID_136998917_JID_7250_Energie_anion

-1 2
