%chk=JID_93.chk
%mem=8GB
%nprocshared=4
# opt freq B3LYP/6-31G(d) empiricaldispersion=gd3bj scf=xqc

CID_149152352_JID_93_neutraal

0 1
C          1.03717        0.04347        0.08203
C          0.57037       -1.26547       -0.53468
C          0.96003       -2.50216        0.28142
C          0.43359       -2.54686        1.72023
C         -1.06034       -2.50368        1.80991
C         -1.82665       -3.53152        2.22442
C         -3.33809       -3.58808        2.36345
N         -3.98151       -4.52168        2.97396
C         -3.27659       -5.60264        3.62950
O         -3.81876       -2.60532        1.77621
H          0.52482        0.24789        1.02664
H          0.82298        0.87543       -0.59660
H          2.11562        0.02778        0.26832
H         -0.51461       -1.23243       -0.68371
H          1.01569       -1.35881       -1.53272
H          0.61163       -3.39375       -0.25573
H          2.05479       -2.57197        0.31342
H          0.81476       -3.45972        2.19538
H          0.84613       -1.71402        2.30090
H         -1.54728       -1.57057        1.53533
H         -1.32822       -4.44971        2.50781
H         -2.77068       -6.24996        2.90593
H         -2.55956       -5.23581        4.37138
H         -4.00004       -6.22446        4.16670

--Link1--
%chk=JID_93.chk
%mem=8GB
%nprocshared=4
# B3LYP/6-311++G(d,p) empiricaldispersion=gd3bj scf=xqc pop=npa geom=check

CID_149152352_JID_93_Energie_neutraal

0 1

--Link1--
%chk=JID_93.chk
%mem=8GB
%nprocshared=4
# B3LYP/6-311++G(d,p) empiricaldispersion=gd3bj scf=xqc pop=npa geom=check

CID_149152352_JID_93_Energie_kation

1 2

--Link1--
%chk=JID_93.chk
%mem=8GB
%nprocshared=4
# B3LYP/6-311++G(d,p) empiricaldispersion=gd3bj scf=xqc pop=npa geom=check

CID_149152352_JID_93_Energie_anion

-1 2
