%chk=JID_9516.chk
%mem=8GB
%nprocshared=4
# opt freq B3LYP/6-31G(d) empiricaldispersion=gd3bj scf=xqc

CID_154258298_JID_9516_neutraal

0 1
C         -1.24600       -1.42200        0.00100
C         -2.26708       -0.38472        0.49334
C         -1.70256        1.00426        0.12274
C         -0.21777        0.73123        0.13053
C          0.82377        1.64842        0.16348
C          2.13287        1.17074        0.14392
C          2.38811       -0.20872        0.08586
C          1.34439       -1.15056        0.04062
C          0.04120       -0.65017        0.06743
C          1.63883       -2.58746       -0.01687
C          2.27765       -3.22971        1.05614
C          2.55971       -4.59707        1.00967
C          2.20809       -5.34282       -0.11287
C          1.57661       -4.72244       -1.18862
C          1.29558       -3.35454       -1.14096
C         -2.18630        1.49740       -1.26240
O         -2.50436        2.64908       -1.53433
O         -2.22385        0.55512       -2.22559
N         -2.10366        1.98535        1.15752
H         -1.45328       -1.72796       -1.02913
H         -1.24210       -2.30005        0.65358
H         -3.26587       -0.57203        0.08332
H         -2.34968       -0.48639        1.58588
H          0.63186        2.71576        0.20991
H          2.96489        1.86996        0.17425
H          3.42248       -0.54835        0.06680
H          2.55120       -2.66246        1.94376
H          3.05149       -5.07763        1.85126
H          2.42666       -6.40675       -0.14937
H          1.30363       -5.30154       -2.06673
H          0.80917       -2.88354       -1.99260
H         -2.49408        1.04784       -3.02856
H         -1.76912        2.90247        0.85576
H         -3.12002        2.06817        1.14451

--Link1--
%chk=JID_9516.chk
%mem=8GB
%nprocshared=4
# B3LYP/6-311++G(d,p) empiricaldispersion=gd3bj scf=xqc pop=npa geom=check

CID_154258298_JID_9516_Energie_neutraal

0 1

--Link1--
%chk=JID_9516.chk
%mem=8GB
%nprocshared=4
# B3LYP/6-311++G(d,p) empiricaldispersion=gd3bj scf=xqc pop=npa geom=check

CID_154258298_JID_9516_Energie_kation

1 2

--Link1--
%chk=JID_9516.chk
%mem=8GB
%nprocshared=4
# B3LYP/6-311++G(d,p) empiricaldispersion=gd3bj scf=xqc pop=npa geom=check

CID_154258298_JID_9516_Energie_anion

-1 2
