%chk=JID_10368.chk
%mem=8GB
%nprocshared=4
# opt freq B3LYP/6-31G(d) empiricaldispersion=gd3bj scf=xqc

CID_68625737_JID_10368_neutraal

0 1
C          2.49600       -0.00700       -0.12600
C          1.05438       -0.44695        0.10863
C          0.14064        0.74615        0.36750
C         -1.19018        0.26382        0.93304
C         -1.96820       -0.67329       -0.01114
C         -1.04618       -1.75910       -0.63047
C          0.44929       -1.45105       -0.88976
S          0.90396       -1.39437       -2.62192
O          2.33448       -1.17481       -2.73558
O          0.34986       -2.59688       -3.22791
C          0.12913       -0.02760       -3.44632
C         -0.91697       -0.27054       -4.34637
C         -1.45399        0.78031       -5.09272
C         -0.93338        2.06686       -4.95802
C          0.13603        2.30142       -4.09308
C          0.68071        1.25223       -3.34935
C         -2.88992        0.08747       -1.00499
C         -3.69048       -0.82869       -1.92848
O         -3.84379        0.85373       -0.28964
O         -2.14295        1.01942       -1.74254
H          2.59368        0.67191       -0.97413
H          2.87497        0.52901        0.75208
H          3.15084       -0.87077       -0.27826
H          1.09699       -0.99328        1.06492
H          0.60424        1.41349        1.10486
H         -0.00029        1.33949       -0.53856
H         -1.79002        1.12795        1.23356
H         -0.99098       -0.28236        1.86560
H         -2.67132       -1.21595        0.64060
H         -1.50896       -2.22253       -1.50443
H         -1.03984       -2.56864        0.11694
H          0.96010       -2.39685       -0.63325
H         -1.30658       -1.27611       -4.49083
H         -2.26346        0.59141       -5.79387
H         -1.34309        2.88430       -5.54671
H          0.56099        3.29930       -4.01347
H          1.54456        1.44550       -2.72223
H         -4.24712       -1.57788       -1.35549
H         -4.42997       -0.24943       -2.49500
H         -3.06345       -1.33324       -2.66640
H         -3.34890        1.61428        0.05619
H         -2.65070        1.23180       -2.54473

--Link1--
%chk=JID_10368.chk
%mem=8GB
%nprocshared=4
# B3LYP/6-311++G(d,p) empiricaldispersion=gd3bj scf=xqc pop=npa geom=check

CID_68625737_JID_10368_Energie_neutraal

0 1

--Link1--
%chk=JID_10368.chk
%mem=8GB
%nprocshared=4
# B3LYP/6-311++G(d,p) empiricaldispersion=gd3bj scf=xqc pop=npa geom=check

CID_68625737_JID_10368_Energie_kation

1 2

--Link1--
%chk=JID_10368.chk
%mem=8GB
%nprocshared=4
# B3LYP/6-311++G(d,p) empiricaldispersion=gd3bj scf=xqc pop=npa geom=check

CID_68625737_JID_10368_Energie_anion

-1 2
