%chk=JID_7546.chk
%mem=8GB
%nprocshared=4
# opt freq B3LYP/6-31G(d) empiricaldispersion=gd3bj scf=xqc

CID_148260699_JID_7546_neutraal

0 1
C          1.06305       -0.07762       -0.00028
C          0.35589       -1.38040        0.39357
C          0.90405       -2.09964        1.60502
C          1.73272       -1.58532        2.53403
C          2.17963       -2.35299        3.67410
C          1.76719       -3.62084        3.87199
N          0.94878       -4.16499        2.90508
C          0.50997       -3.54105        1.75363
O         -0.14766       -4.13991        0.90379
O          0.59754       -5.52654        3.04934
C          2.17910       -4.43921        5.04949
C          1.79272       -3.87596        6.41669
O          1.20932       -5.07178        5.91446
O          3.49417       -5.06330        5.06001
C          3.47638       -6.37881        4.51999
O         -1.06216       -1.18430        0.50086
C         -1.50289       -0.27558        1.49793
H          1.00933        0.68041        0.78764
H          0.58730        0.35676       -0.88650
H          2.11921       -0.25676       -0.22749
H          0.48868       -2.04976       -0.46649
H          2.07730       -0.55696        2.48417
H          2.84771       -1.86960        4.38126
H          0.04029       -5.66619        2.25446
H          2.50913       -3.96652        7.22327
H          1.15487       -3.00429        6.47814
H          2.79897       -7.02213        5.08943
H          3.18497       -6.35767        3.46647
H          4.48629       -6.79159        4.59159
H         -1.14425       -0.56141        2.49018
H         -1.19650        0.74634        1.26124
H         -2.59633       -0.30056        1.51457

--Link1--
%chk=JID_7546.chk
%mem=8GB
%nprocshared=4
# B3LYP/6-311++G(d,p) empiricaldispersion=gd3bj scf=xqc pop=npa geom=check

CID_148260699_JID_7546_Energie_neutraal

0 1

--Link1--
%chk=JID_7546.chk
%mem=8GB
%nprocshared=4
# B3LYP/6-311++G(d,p) empiricaldispersion=gd3bj scf=xqc pop=npa geom=check

CID_148260699_JID_7546_Energie_kation

1 2

--Link1--
%chk=JID_7546.chk
%mem=8GB
%nprocshared=4
# B3LYP/6-311++G(d,p) empiricaldispersion=gd3bj scf=xqc pop=npa geom=check

CID_148260699_JID_7546_Energie_anion

-1 2
