%chk=JID_5569.chk
%mem=8GB
%nprocshared=4
# opt freq B3LYP/6-31G(d) empiricaldispersion=gd3bj scf=xqc

CID_116707919_JID_5569_neutraal

0 1
C          0.99389       -0.08171        0.05733
C          0.28874       -1.09663       -0.83101
C          0.05373       -2.44617       -0.14508
C         -0.89873       -2.42637        1.06312
C         -2.34671       -2.07252        0.66042
O         -3.11668       -2.89252        0.15719
C         -2.80982       -0.63598        0.85826
C         -3.01035       -0.25282        2.32357
C         -1.95780        0.70923        2.89628
C         -1.79059        2.05618        2.16244
C         -3.08734        2.86299        2.11244
C         -0.68932        2.87984        2.83652
O         -0.83985       -3.58614        1.89830
C         -0.55082       -4.86042        1.33386
C         -1.68246       -5.45986        0.52364
H          0.38620        0.20141        0.91796
H          1.20561        0.82967       -0.51111
H          1.94584       -0.47864        0.42399
H         -0.65302       -0.68165       -1.20275
H          0.91456       -1.26805       -1.71566
H         -0.33085       -3.14154       -0.90097
H          1.02867       -2.84073        0.16661
H         -0.56958       -1.63145        1.73479
H         -2.12887        0.02821        0.32689
H         -3.77529       -0.54829        0.34291
H         -3.99765        0.21207        2.43279
H         -3.03466       -1.15212        2.95163
H         -2.22275        0.90772        3.94343
H         -0.98899        0.19863        2.92765
H         -1.46548        1.87663        1.13225
H         -3.48467        3.03966        3.11733
H         -2.91930        3.83686        1.63955
H         -3.85349        2.34719        1.52569
H          0.25754        2.32926        2.84508
H         -0.52156        3.81865        2.29776
H         -0.95072        3.12444        3.87142
H          0.38091       -4.84298        0.76090
H         -0.36214       -5.52557        2.18423
H         -1.81623       -4.93305       -0.42435
H         -1.46863       -6.50714        0.28819
H         -2.62662       -5.41038        1.07435

--Link1--
%chk=JID_5569.chk
%mem=8GB
%nprocshared=4
# B3LYP/6-311++G(d,p) empiricaldispersion=gd3bj scf=xqc pop=npa geom=check

CID_116707919_JID_5569_Energie_neutraal

0 1

--Link1--
%chk=JID_5569.chk
%mem=8GB
%nprocshared=4
# B3LYP/6-311++G(d,p) empiricaldispersion=gd3bj scf=xqc pop=npa geom=check

CID_116707919_JID_5569_Energie_kation

1 2

--Link1--
%chk=JID_5569.chk
%mem=8GB
%nprocshared=4
# B3LYP/6-311++G(d,p) empiricaldispersion=gd3bj scf=xqc pop=npa geom=check

CID_116707919_JID_5569_Energie_anion

-1 2
