%chk=JID_5023.chk
%mem=8GB
%nprocshared=4
# opt freq B3LYP/6-31G(d) empiricaldispersion=gd3bj scf=xqc

CID_106130103_JID_5023_neutraal

0 1
C          1.25500       -0.80600        0.40000
C          0.77390       -1.86204       -0.58800
C          0.36759       -1.08745       -1.83911
C          1.00342        0.29966       -1.72745
C          1.90988        0.24622       -0.49185
C          2.08878        1.62566        0.14805
N          2.96357        1.61821        1.31452
C          2.34968        2.14682        2.53847
C          1.56659        1.05541        3.27336
O          2.14152        0.08201        3.76679
N          0.21174        1.11896        3.39564
C         -0.73270        1.92050        2.64004
C         -1.26568        1.16267        1.43503
N         -1.70783        0.53399        0.43539
O         -1.04631       -0.97550       -1.92242
H          0.43960       -0.43644        0.99993
H          1.97951       -1.24125        1.09721
H         -0.03577       -2.46767       -0.16950
H          1.61114       -2.52865       -0.82836
H          0.70470       -1.60772       -2.74127
H          1.59712        0.52936       -2.61963
H          0.24181        1.08307       -1.64187
H          2.89411       -0.13017       -0.80605
H          2.54508        2.29104       -0.59511
H          1.11312        2.06607        0.37199
H          3.34508        0.68838        1.50462
H          3.15268        2.45413        3.21932
H          1.76478        3.04913        2.35174
H         -0.15700        0.30113        3.86967
H         -1.56666        2.14853        3.31139
H         -0.28639        2.86174        2.31655
H         -1.36252       -0.51297       -1.11620

--Link1--
%chk=JID_5023.chk
%mem=8GB
%nprocshared=4
# B3LYP/6-311++G(d,p) empiricaldispersion=gd3bj scf=xqc pop=npa geom=check

CID_106130103_JID_5023_Energie_neutraal

0 1

--Link1--
%chk=JID_5023.chk
%mem=8GB
%nprocshared=4
# B3LYP/6-311++G(d,p) empiricaldispersion=gd3bj scf=xqc pop=npa geom=check

CID_106130103_JID_5023_Energie_kation

1 2

--Link1--
%chk=JID_5023.chk
%mem=8GB
%nprocshared=4
# B3LYP/6-311++G(d,p) empiricaldispersion=gd3bj scf=xqc pop=npa geom=check

CID_106130103_JID_5023_Energie_anion

-1 2
