%chk=JID_4644.chk
%mem=8GB
%nprocshared=4
# opt freq B3LYP/6-31G(d) empiricaldispersion=gd3bj scf=xqc

CID_132546093_JID_4644_neutraal

0 1
C          1.09341       -0.02731       -0.02298
C          1.00149       -0.73860       -1.36155
O          2.00616       -1.73949       -1.52198
C          3.33152       -1.23064       -1.69448
C          3.52528       -0.58913       -3.04672
C          3.83181        0.77835       -3.17987
C          3.99794        1.37209       -4.43338
C          3.86012        0.57079       -5.55382
C          3.95534        0.93322       -6.98921
O          3.91268       -0.33040       -7.69144
C          3.44675       -1.36966       -6.79781
C          3.55956       -0.77678       -5.44254
C          3.38287       -1.37316       -4.20511
O          3.95501        1.53884       -2.04980
H          1.16648       -0.75022        0.79577
H          0.21290        0.60201        0.13733
H          1.97682        0.61517        0.03060
H          0.03825       -1.25747       -1.41413
H          1.02045       -0.02431       -2.19106
H          3.60662       -0.57639       -0.86235
H          4.01202       -2.08835       -1.62856
H          4.22434        2.42652       -4.54052
H          3.10329        1.53995       -7.30952
H          4.89638        1.43371       -7.23172
H          4.08644       -2.24699       -6.92431
H          2.40973       -1.60868       -7.05051
H          3.13026       -2.42731       -4.12643
H          4.17729        2.44877       -2.30667

--Link1--
%chk=JID_4644.chk
%mem=8GB
%nprocshared=4
# B3LYP/6-311++G(d,p) empiricaldispersion=gd3bj scf=xqc pop=npa geom=check

CID_132546093_JID_4644_Energie_neutraal

0 1

--Link1--
%chk=JID_4644.chk
%mem=8GB
%nprocshared=4
# B3LYP/6-311++G(d,p) empiricaldispersion=gd3bj scf=xqc pop=npa geom=check

CID_132546093_JID_4644_Energie_kation

1 2

--Link1--
%chk=JID_4644.chk
%mem=8GB
%nprocshared=4
# B3LYP/6-311++G(d,p) empiricaldispersion=gd3bj scf=xqc pop=npa geom=check

CID_132546093_JID_4644_Energie_anion

-1 2
