%chk=JID_1935.chk
%mem=8GB
%nprocshared=4
# opt freq B3LYP/6-31G(d) empiricaldispersion=gd3bj scf=xqc

CID_63321189_JID_1935_neutraal

0 1
C          0.93496       -0.05086        0.05642
C          0.58008        0.25632       -1.39621
C          0.80403       -0.89984       -2.40696
C         -0.06548       -2.12282       -2.06222
C          0.41318       -0.45944       -3.83984
N          0.98248       -1.14078       -4.86559
C          0.61096       -0.78215       -6.10818
C         -0.30511        0.20679       -6.37136
C         -0.84259        0.82445       -5.26840
N         -0.51535        0.50670       -4.00224
N          2.23675       -1.30158       -2.34571
H          0.32221       -0.86251        0.45831
H          0.75278        0.83403        0.67560
H          1.98936       -0.31905        0.16937
H         -0.47310        0.56706       -1.41569
H          1.16091        1.13448       -1.71074
H         -1.12983       -1.85928       -2.05107
H          0.06211       -2.92763       -2.79699
H          0.18189       -2.54247       -1.08115
H          1.08812       -1.33403       -6.91255
H         -0.58580        0.47942       -7.37836
H         -1.57687        1.61805       -5.37139
H          2.37202       -1.97075       -1.59249
H          2.43162       -1.80642       -3.21563

--Link1--
%chk=JID_1935.chk
%mem=8GB
%nprocshared=4
# B3LYP/6-311++G(d,p) empiricaldispersion=gd3bj scf=xqc pop=npa geom=check

CID_63321189_JID_1935_Energie_neutraal

0 1

--Link1--
%chk=JID_1935.chk
%mem=8GB
%nprocshared=4
# B3LYP/6-311++G(d,p) empiricaldispersion=gd3bj scf=xqc pop=npa geom=check

CID_63321189_JID_1935_Energie_kation

1 2

--Link1--
%chk=JID_1935.chk
%mem=8GB
%nprocshared=4
# B3LYP/6-311++G(d,p) empiricaldispersion=gd3bj scf=xqc pop=npa geom=check

CID_63321189_JID_1935_Energie_anion

-1 2
