%chk=JID_3030.chk
%mem=8GB
%nprocshared=4
# opt freq B3LYP/6-31G(d) empiricaldispersion=gd3bj scf=xqc

CID_62416931_JID_3030_neutraal

0 1
C          0.33400        1.00600       -0.17300
C          1.17306       -0.18106        0.34686
C          0.47131       -1.02887       -0.74385
C         -0.71226       -0.03967       -0.62297
N          0.05685       -2.32499       -0.21036
C          1.03565       -3.36620       -0.57105
C          2.31009       -3.23202        0.26625
O          2.26430       -3.25233        1.49918
N          3.52597       -3.06660       -0.32860
C          3.87953       -2.90786       -1.73278
C          4.15988       -1.45555       -2.11870
C          5.41952       -0.98505       -1.53030
N          6.42193       -0.62832       -1.06797
H          0.80204        1.55118       -1.00093
H         -0.00102        1.72101        0.58226
H          2.25500       -0.06562        0.24574
H          0.94442       -0.44201        1.38781
H          0.94045       -1.02439       -1.73403
H         -1.45549       -0.26647        0.15175
H         -1.23421        0.19148       -1.55563
H         -0.06357       -2.35136        0.80663
H          0.60565       -4.34618       -0.33334
H          1.21457       -3.36539       -1.64595
H          4.27375       -2.99180        0.35626
H          4.76512       -3.53054       -1.90348
H          3.08266       -3.30350       -2.36463
H          4.23093       -1.38348       -3.20998
H          3.33840       -0.80508       -1.80525

--Link1--
%chk=JID_3030.chk
%mem=8GB
%nprocshared=4
# B3LYP/6-311++G(d,p) empiricaldispersion=gd3bj scf=xqc pop=npa geom=check

CID_62416931_JID_3030_Energie_neutraal

0 1

--Link1--
%chk=JID_3030.chk
%mem=8GB
%nprocshared=4
# B3LYP/6-311++G(d,p) empiricaldispersion=gd3bj scf=xqc pop=npa geom=check

CID_62416931_JID_3030_Energie_kation

1 2

--Link1--
%chk=JID_3030.chk
%mem=8GB
%nprocshared=4
# B3LYP/6-311++G(d,p) empiricaldispersion=gd3bj scf=xqc pop=npa geom=check

CID_62416931_JID_3030_Energie_anion

-1 2
