%chk=JID_3817.chk
%mem=8GB
%nprocshared=4
# opt freq B3LYP/6-31G(d) empiricaldispersion=gd3bj scf=xqc

CID_148600549_JID_3817_neutraal

0 1
C          1.00618        0.03129       -0.09478
C          0.46751       -0.97032       -1.08410
O         -0.16409       -1.95619       -0.70828
N          0.77429       -0.64673       -2.38757
C          0.44343       -1.40738       -3.21658
C          0.10248       -2.23223       -4.16733
C          0.41790       -1.97691       -5.62137
C          1.25101       -3.12192       -6.20385
C          0.58872       -4.46259       -5.94772
C          0.25464       -4.71075       -4.48793
C         -0.57035       -3.55880       -3.90579
C         -0.31817       -5.04169       -7.01189
C          1.03989       -5.64247       -6.77895
H          0.68343       -0.23737        0.91500
H          0.62385        1.02775       -0.33191
H          2.09877        0.03109       -0.13009
H         -0.52542       -1.88487       -6.17424
H          0.95822       -1.03141       -5.74892
H          2.24829       -3.12687       -5.74572
H          1.39570       -2.95268       -7.27776
H          1.19053       -4.81866       -3.92501
H         -0.29963       -5.64921       -4.36534
H         -0.72021       -3.72543       -2.83303
H         -1.56469       -3.54408       -4.36962
H         -1.18431       -5.61764       -6.70450
H         -0.47247       -4.48328       -7.92879
H          1.80117       -5.48555       -7.53554
H          1.08900       -6.62008       -6.31147

--Link1--
%chk=JID_3817.chk
%mem=8GB
%nprocshared=4
# B3LYP/6-311++G(d,p) empiricaldispersion=gd3bj scf=xqc pop=npa geom=check

CID_148600549_JID_3817_Energie_neutraal

0 1

--Link1--
%chk=JID_3817.chk
%mem=8GB
%nprocshared=4
# B3LYP/6-311++G(d,p) empiricaldispersion=gd3bj scf=xqc pop=npa geom=check

CID_148600549_JID_3817_Energie_kation

1 2

--Link1--
%chk=JID_3817.chk
%mem=8GB
%nprocshared=4
# B3LYP/6-311++G(d,p) empiricaldispersion=gd3bj scf=xqc pop=npa geom=check

CID_148600549_JID_3817_Energie_anion

-1 2
