%chk=JID_2798.chk
%mem=8GB
%nprocshared=4
# opt freq B3LYP/6-31G(d) empiricaldispersion=gd3bj scf=xqc

CID_15563449_JID_2798_neutraal

0 1
C          1.03317       -0.03374        0.08810
C          1.06921        1.34805       -0.55594
C          1.50502        1.41067       -2.03617
S          0.71020        0.26131       -3.23285
C          1.59068       -1.26339       -2.94988
C          0.84808       -2.43408       -2.75633
C          1.49035       -3.65470       -2.53847
C          2.88174       -3.71608       -2.52558
C          3.62979       -2.56026       -2.74179
C          2.98650       -1.33926       -2.96176
O         -0.11476        2.10131       -0.25322
C         -1.31226        1.69203       -0.89393
H          0.25192       -0.67214       -0.33174
H          0.80796        0.05787        1.15669
H          1.99655       -0.54206       -0.01380
H          1.85014        1.89864       -0.01442
H          1.29620        2.41835       -2.41358
H          2.58927        1.27783       -2.09630
H         -0.23922       -2.40424       -2.76849
H          0.90322       -4.55618       -2.38320
H          3.38276       -4.66615       -2.35821
H          4.71567       -2.61038       -2.74857
H          3.59178       -0.45881       -3.15734
H         -1.30250        1.98285       -1.94679
H         -1.49093        0.61962       -0.78785
H         -2.14379        2.21956       -0.41734

--Link1--
%chk=JID_2798.chk
%mem=8GB
%nprocshared=4
# B3LYP/6-311++G(d,p) empiricaldispersion=gd3bj scf=xqc pop=npa geom=check

CID_15563449_JID_2798_Energie_neutraal

0 1

--Link1--
%chk=JID_2798.chk
%mem=8GB
%nprocshared=4
# B3LYP/6-311++G(d,p) empiricaldispersion=gd3bj scf=xqc pop=npa geom=check

CID_15563449_JID_2798_Energie_kation

1 2

--Link1--
%chk=JID_2798.chk
%mem=8GB
%nprocshared=4
# B3LYP/6-311++G(d,p) empiricaldispersion=gd3bj scf=xqc pop=npa geom=check

CID_15563449_JID_2798_Energie_anion

-1 2
