%chk=JID_2895.chk
%mem=8GB
%nprocshared=4
# opt freq B3LYP/6-31G(d) empiricaldispersion=gd3bj scf=xqc

CID_57268015_JID_2895_neutraal

0 1
C          1.03505       -0.08615       -0.03673
C          0.30071        1.16137        0.54814
C          0.24872        2.18280       -0.60571
C         -1.13192        0.64125        0.83137
N          0.91783        1.69446        1.80510
C          2.27967        1.21667        2.13843
C          3.36820        1.94050        1.37798
O          4.40357        2.34922        1.90029
C          0.51904        2.99995        2.43035
C          1.22175        4.22460        1.79958
C         -1.00169        3.27950        2.41520
C          0.88627        3.01384        3.94490
H          0.52946       -0.45545       -0.93851
H          1.04390       -0.92053        0.67430
H          2.06306        0.13569       -0.33882
H         -0.14640        1.72154       -1.51948
H         -0.40239        3.03306       -0.39571
H          1.24580        2.56441       -0.84785
H         -1.15989        0.04089        1.74830
H         -1.87531        1.43483        0.91430
H         -1.48975       -0.00261        0.01788
H          2.49413        1.29794        3.20696
H          2.39723        0.14629        1.95168
H          3.23208        2.02389        0.28876
H          1.02745        4.32150        0.73008
H          0.87035        5.15395        2.26564
H          2.30487        4.20396        1.94541
H         -1.56149        2.46469        2.88724
H         -1.24187        4.18744        2.98383
H         -1.39288        3.45658        1.41196
H          0.50945        2.11776        4.45187
H          1.96593        3.08617        4.11453
H          0.44828        3.88139        4.45435

--Link1--
%chk=JID_2895.chk
%mem=8GB
%nprocshared=4
# B3LYP/6-311++G(d,p) empiricaldispersion=gd3bj scf=xqc pop=npa geom=check

CID_57268015_JID_2895_Energie_neutraal

0 1

--Link1--
%chk=JID_2895.chk
%mem=8GB
%nprocshared=4
# B3LYP/6-311++G(d,p) empiricaldispersion=gd3bj scf=xqc pop=npa geom=check

CID_57268015_JID_2895_Energie_kation

1 2

--Link1--
%chk=JID_2895.chk
%mem=8GB
%nprocshared=4
# B3LYP/6-311++G(d,p) empiricaldispersion=gd3bj scf=xqc pop=npa geom=check

CID_57268015_JID_2895_Energie_anion

-1 2
