%chk=JID_8569.chk
%mem=8GB
%nprocshared=4
# opt freq B3LYP/6-31G(d) empiricaldispersion=gd3bj scf=xqc

CID_64689413_JID_8569_neutraal

0 1
C          1.69800        0.03400       -0.78800
C          0.94521        0.33786        0.52192
C         -0.30988       -0.54680        0.66256
C         -1.35881        0.06711       -0.26093
C         -1.00020        1.54320       -0.37872
C          0.27449        1.73315        0.43849
N          1.87790        0.26834        1.64434
C          2.20688       -0.74619        2.51774
N          3.13152       -0.28320        3.33963
N          3.39448        1.00114        2.95472
N          2.65459        1.34292        1.91439
C          1.67061       -2.09895        2.54572
C          0.63916       -2.39634        3.45176
C          0.06273       -3.66517        3.47674
C          0.51000       -4.64290        2.59392
C          1.55690       -4.36325        1.71243
C          2.19470       -3.11557        1.72255
N          3.19291       -2.85613        0.76150
H          2.07536       -0.99219       -0.79888
H          1.06360        0.15265       -1.67233
H          2.55886        0.70101       -0.91390
H         -0.13193       -1.59459        0.40184
H         -0.69383       -0.51319        1.68975
H         -2.36973       -0.07689        0.13386
H         -1.32554       -0.40694       -1.24863
H         -1.80500        2.18678       -0.00872
H         -0.82996        1.80660       -1.42874
H          0.00006        2.08839        1.44131
H          0.92445        2.49453       -0.00731
H          0.27327       -1.63143        4.13425
H         -0.74171       -3.88510        4.17406
H          0.04730       -5.62675        2.59120
H          1.88426       -5.13904        1.02457
H          3.84818       -2.13670        1.06873
H          3.69354       -3.69375        0.47619

--Link1--
%chk=JID_8569.chk
%mem=8GB
%nprocshared=4
# B3LYP/6-311++G(d,p) empiricaldispersion=gd3bj scf=xqc pop=npa geom=check

CID_64689413_JID_8569_Energie_neutraal

0 1

--Link1--
%chk=JID_8569.chk
%mem=8GB
%nprocshared=4
# B3LYP/6-311++G(d,p) empiricaldispersion=gd3bj scf=xqc pop=npa geom=check

CID_64689413_JID_8569_Energie_kation

1 2

--Link1--
%chk=JID_8569.chk
%mem=8GB
%nprocshared=4
# B3LYP/6-311++G(d,p) empiricaldispersion=gd3bj scf=xqc pop=npa geom=check

CID_64689413_JID_8569_Energie_anion

-1 2
