%chk=JID_5649.chk
%mem=8GB
%nprocshared=4
# opt freq B3LYP/6-31G(d) empiricaldispersion=gd3bj scf=xqc

CID_84775834_JID_5649_neutraal

0 1
C          1.07407       -0.00542        0.06696
C          0.74366        1.36385        0.60394
C          0.94872        2.49539       -0.19756
C          0.63441        3.76039        0.32984
C          0.12336        3.86711        1.64537
C         -0.07287        2.73402        2.42750
C          0.23700        1.48469        1.90835
C          0.86323        4.85019       -0.52578
N          1.35220        4.71108       -1.77628
C          1.61606        3.45506       -2.17308
N          1.43487        2.34747       -1.43660
C          2.15824        3.27530       -3.55601
O          2.43799        2.16822       -4.01421
C          2.35026        4.52634       -4.37363
C          0.57617        6.26396       -0.10357
H          0.49189       -0.20997       -0.83753
H          0.83905       -0.78968        0.79438
H          2.14242       -0.07466       -0.16235
H         -0.12591        4.83594        2.07169
H         -0.46538        2.82456        3.43731
H          0.08316        0.59971        2.52257
H          1.39438        5.03908       -4.51015
H          3.07656        5.18507       -3.89019
H          2.73675        4.25665       -5.36134
H         -0.48560        6.38465        0.13267
H          1.18033        6.53307        0.76839
H          0.82040        6.96664       -0.90753

--Link1--
%chk=JID_5649.chk
%mem=8GB
%nprocshared=4
# B3LYP/6-311++G(d,p) empiricaldispersion=gd3bj scf=xqc pop=npa geom=check

CID_84775834_JID_5649_Energie_neutraal

0 1

--Link1--
%chk=JID_5649.chk
%mem=8GB
%nprocshared=4
# B3LYP/6-311++G(d,p) empiricaldispersion=gd3bj scf=xqc pop=npa geom=check

CID_84775834_JID_5649_Energie_kation

1 2

--Link1--
%chk=JID_5649.chk
%mem=8GB
%nprocshared=4
# B3LYP/6-311++G(d,p) empiricaldispersion=gd3bj scf=xqc pop=npa geom=check

CID_84775834_JID_5649_Energie_anion

-1 2
