%chk=JID_9723.chk
%mem=8GB
%nprocshared=4
# opt=(cartesian,calcfc) freq B3LYP/6-31G(d) empiricaldispersion=gd3bj scf=xqc

CID_61196908_JID_9723_neutraal

0 1
C          1.05926        0.06841       -0.04252
C          1.17790       -1.39216       -0.45542
C          1.64508       -2.30894        0.67930
C          0.68103       -2.41526        1.86706
C         -0.61458       -3.17424        1.55793
C         -0.35697       -4.68234        1.59223
O         -0.28756       -5.38254        2.59130
O         -0.16472       -5.21672        0.36937
N         -1.61867       -2.87966        2.59085
C         -2.95301       -2.93876        2.37964
O         -3.69144       -3.44412        3.21941
N         -3.46901       -2.45694        1.22675
C         -3.06771       -1.21266        0.55726
C         -3.19692       -1.38970       -0.96023
C         -4.60057       -1.17261       -1.52265
C         -4.87269        0.28801       -1.87647
C         -5.03952        1.22658       -0.68619
C         -3.88345        1.22908        0.31360
C         -3.84212       -0.03465        1.16948
H          0.25541        0.21808        0.68362
H          0.83164        0.68690       -0.91679
H          1.99487        0.43138        0.39426
H          0.22255       -1.73593       -0.86492
H          1.90694       -1.45987       -1.27212
H          1.83839       -3.30762        0.27095
H          2.60968       -1.93970        1.04997
H          1.20914       -2.91758        2.68883
H          0.44758       -1.41052        2.23793
H         -1.01800       -2.93173        0.57407
H         -0.03603       -6.17262        0.54777
H         -1.41061       -3.31344        3.48557
H         -4.46557       -2.63889        1.20614
H         -2.01080       -1.02954        0.77406
H         -2.49351       -0.71415       -1.46356
H         -2.86948       -2.40403       -1.22545
H         -5.36988       -1.56209       -0.84654
H         -4.68196       -1.75232       -2.45107
H         -5.79213        0.33280       -2.47382
H         -4.07186        0.66406       -2.52541
H         -5.97587        0.98903       -0.16592
H         -5.16025        2.24510       -1.07632
H         -4.03857        2.08215        0.98647
H         -2.92547        1.40214       -0.18964
H         -4.86647       -0.33679        1.42478
H         -3.36860        0.20983        2.13020

--Link1--
%chk=JID_9723.chk
%mem=8GB
%nprocshared=4
# B3LYP/6-311++G(d,p) empiricaldispersion=gd3bj scf=xqc pop=npa geom=check

CID_61196908_JID_9723_Energie_neutraal

0 1

--Link1--
%chk=JID_9723.chk
%mem=8GB
%nprocshared=4
# B3LYP/6-311++G(d,p) empiricaldispersion=gd3bj scf=xqc pop=npa geom=check

CID_61196908_JID_9723_Energie_kation

1 2

--Link1--
%chk=JID_9723.chk
%mem=8GB
%nprocshared=4
# B3LYP/6-311++G(d,p) empiricaldispersion=gd3bj scf=xqc pop=npa geom=check

CID_61196908_JID_9723_Energie_anion

-1 2
