%chk=JID_10321.chk
%mem=8GB
%nprocshared=4
# opt freq B3LYP/6-31G(d) empiricaldispersion=gd3bj scf=xqc

CID_103718630_JID_10321_neutraal

0 1
C          0.97395       -0.06962        0.06689
C         -0.08681        1.03839        0.07379
C          0.43043        2.21031       -0.76728
C         -1.42834        0.53107       -0.48689
O         -2.43750        0.37269        0.51408
C         -2.26889       -0.71418        1.41501
C         -3.16398       -1.90378        1.06372
C         -2.78743       -2.63965       -0.22058
N         -1.49845       -3.33754       -0.07427
S         -0.46509       -3.44531       -1.38081
O         -0.86387       -2.50457       -2.39791
O          0.86236       -3.43986       -0.81958
N         -0.78721       -4.99616       -1.94131
C         -2.18253       -5.30910       -2.29334
C          0.22249       -5.54999       -2.89850
C          0.11803       -4.99303       -4.31553
C          1.00517       -3.79327       -4.52425
O          2.16756       -3.71966       -4.15132
O          0.34453       -2.83756       -5.23368
C          1.07227       -1.61885       -5.38657
H          0.68678       -0.91947        0.68890
H          1.92584        0.30850        0.45587
H          1.15355       -0.43929       -0.94869
H         -0.22068        1.38840        1.10434
H          0.58476        1.91332       -1.81079
H         -0.28045        3.04319       -0.75281
H          1.38433        2.58064       -0.37677
H         -1.84039        1.26263       -1.19104
H         -1.30372       -0.39368       -1.04857
H         -1.22607       -1.01114        1.52539
H         -2.58504       -0.34196        2.39629
H         -3.15302       -2.61109        1.90193
H         -4.19418       -1.54335        0.95371
H         -3.55155       -3.39790       -0.42349
H         -2.80495       -1.94937       -1.06528
H         -0.94832       -3.12149        0.75617
H         -2.63300       -4.51569       -2.89639
H         -2.24431       -6.24187       -2.86295
H         -2.77003       -5.45488       -1.38292
H          1.22791       -5.43231       -2.47871
H          0.05541       -6.63463       -2.93670
H          0.46015       -5.74760       -5.03384
H         -0.91478       -4.74452       -4.57878
H          1.40500       -1.23721       -4.41566
H          1.92327       -1.76913       -6.05740
H          0.40246       -0.87876       -5.83345

--Link1--
%chk=JID_10321.chk
%mem=8GB
%nprocshared=4
# B3LYP/6-311++G(d,p) empiricaldispersion=gd3bj scf=xqc pop=npa geom=check

CID_103718630_JID_10321_Energie_neutraal

0 1

--Link1--
%chk=JID_10321.chk
%mem=8GB
%nprocshared=4
# B3LYP/6-311++G(d,p) empiricaldispersion=gd3bj scf=xqc pop=npa geom=check

CID_103718630_JID_10321_Energie_kation

1 2

--Link1--
%chk=JID_10321.chk
%mem=8GB
%nprocshared=4
# B3LYP/6-311++G(d,p) empiricaldispersion=gd3bj scf=xqc pop=npa geom=check

CID_103718630_JID_10321_Energie_anion

-1 2
