%chk=JID_8957.chk
%mem=8GB
%nprocshared=4
# opt freq B3LYP/6-31G(d) empiricaldispersion=gd3bj scf=xqc

CID_64764755_JID_8957_neutraal

0 1
C          0.91543       -0.04357        0.03083
C          2.04806       -0.51681        0.93429
C          1.85488       -0.20293        2.39929
C          2.14272       -1.18007        3.36233
C          1.99906       -0.90609        4.72487
C          1.57088        0.35511        5.15601
C          1.29444        1.33713        4.19807
C          1.44508        1.06364        2.83526
C          1.38900        0.63902        6.62732
O          0.33341       -0.17417        7.15970
C         -0.81358        0.54903        7.36437
C         -0.87498        1.42250        8.45560
C         -2.03146        2.16154        8.69133
C         -3.12544        2.02032        7.84250
C         -3.07204        1.12477        6.77052
C         -1.92509        0.34984        6.53084
C         -1.87780       -0.61749        5.36869
C         -3.09769       -1.52500        5.25504
H         -0.05181       -0.42459        0.37525
H          1.07771       -0.40011       -0.99161
H          0.85729        1.04862       -0.00798
H          2.14637       -1.60190        0.80410
H          2.99431       -0.07207        0.60433
H          2.47763       -2.16980        3.05930
H          2.21016       -1.68728        5.45226
H          0.95268        2.32337        4.50457
H          1.23521        1.85512        2.12034
H          2.31110        0.36827        7.15572
H          1.23911        1.71277        6.80384
H         -0.02410        1.52400        9.12263
H         -2.07960        2.84501        9.53457
H         -4.02762        2.60130        8.01703
H         -3.94163        1.03797        6.12390
H         -1.75650       -0.04391        4.44224
H         -1.00455       -1.27263        5.45352
H         -4.00447       -0.96166        5.01469
H         -2.94557       -2.25691        4.45485
H         -3.27207       -2.07158        6.18782

--Link1--
%chk=JID_8957.chk
%mem=8GB
%nprocshared=4
# B3LYP/6-311++G(d,p) empiricaldispersion=gd3bj scf=xqc pop=npa geom=check

CID_64764755_JID_8957_Energie_neutraal

0 1

--Link1--
%chk=JID_8957.chk
%mem=8GB
%nprocshared=4
# B3LYP/6-311++G(d,p) empiricaldispersion=gd3bj scf=xqc pop=npa geom=check

CID_64764755_JID_8957_Energie_kation

1 2

--Link1--
%chk=JID_8957.chk
%mem=8GB
%nprocshared=4
# B3LYP/6-311++G(d,p) empiricaldispersion=gd3bj scf=xqc pop=npa geom=check

CID_64764755_JID_8957_Energie_anion

-1 2
