%chk=JID_10939.chk
%mem=8GB
%nprocshared=4
# opt freq B3LYP/6-31G(d) empiricaldispersion=gd3bj scf=xqc

CID_90432381_JID_10939_neutraal

0 1
C          2.49200        0.00400       -0.01400
C          1.03987       -0.13006       -0.38313
C          0.42009       -1.38611       -0.27767
C         -0.92202       -1.55347       -0.62236
C         -1.66326       -0.46993       -1.08301
C         -1.06234        0.78248       -1.20078
C          0.28766        0.96367       -0.85713
C          0.86567        2.31798       -1.00351
C          0.73168        3.22918       -0.01226
C          0.08173        2.98296        1.32052
C          1.32352        4.59519       -0.18625
O          2.48168        4.74014       -0.57562
C          0.45071        5.79983        0.09445
C         -0.23187        6.28351       -1.17639
N         -1.38551        5.48433       -1.54175
C         -2.57341        5.42733       -0.86708
C         -3.34630        4.54524       -1.58517
N         -2.66405        4.08254       -2.67981
C         -1.49515        4.68182       -2.64001
C          1.52003        2.54392       -2.34338
H          2.86371       -0.90173        0.47733
H          3.09718        0.16958       -0.91043
H          2.64082        0.83113        0.68718
H          0.98284       -2.24783        0.07508
H         -1.38712       -2.53193       -0.53503
H         -2.70704       -0.59720       -1.35743
H         -1.65313        1.61904       -1.57181
H          0.62014        3.51089        2.11546
H         -0.95393        3.33719        1.31058
H          0.07599        1.92665        1.60376
H         -0.26469        5.58972        0.89462
H          1.11195        6.58643        0.47876
H         -0.60006        7.30684       -1.03788
H          0.45890        6.29054       -2.02742
H         -2.76818        5.99213        0.03366
H         -4.35803        4.22275       -1.37545
H         -0.70384        4.56204       -3.36889
H          2.53512        2.13436       -2.34678
H          0.95366        2.05746       -3.14605
H          1.57829        3.60141       -2.61479

--Link1--
%chk=JID_10939.chk
%mem=8GB
%nprocshared=4
# B3LYP/6-311++G(d,p) empiricaldispersion=gd3bj scf=xqc pop=npa geom=check

CID_90432381_JID_10939_Energie_neutraal

0 1

--Link1--
%chk=JID_10939.chk
%mem=8GB
%nprocshared=4
# B3LYP/6-311++G(d,p) empiricaldispersion=gd3bj scf=xqc pop=npa geom=check

CID_90432381_JID_10939_Energie_kation

1 2

--Link1--
%chk=JID_10939.chk
%mem=8GB
%nprocshared=4
# B3LYP/6-311++G(d,p) empiricaldispersion=gd3bj scf=xqc pop=npa geom=check

CID_90432381_JID_10939_Energie_anion

-1 2
