%chk=JID_5104.chk
%mem=8GB
%nprocshared=4
# opt freq B3LYP/6-31G(d) empiricaldispersion=gd3bj scf=xqc

CID_117223831_JID_5104_neutraal

0 1
C          0.94915       -0.07867       -0.03499
C          0.59723       -0.45715       -1.44009
C          0.49383        0.51573       -2.44106
C          0.21190        0.09165       -3.75055
C          0.06044       -1.27549       -3.96681
N          0.15186       -2.25502       -3.04556
C          0.42971       -1.79259       -1.80387
N         -0.19561       -1.45920       -5.30299
C         -0.20357       -0.24413       -5.94619
C          0.03729        0.73454       -5.00500
C         -0.37364       -2.74879       -5.94848
C         -1.76658       -3.38035       -5.72859
C         -2.87903       -2.49578       -6.30649
N         -1.77777       -4.71088       -6.37464
C         -2.80798       -5.58916       -5.83674
H          0.52404       -0.79072        0.68017
H          0.54900        0.90975        0.21422
H          2.03644       -0.06136        0.08746
H          0.63326        1.56910       -2.22116
H          0.52291       -2.57906       -1.05709
H         -0.37866       -0.17466       -7.01185
H          0.09224        1.79714       -5.20084
H         -0.17409       -2.61050       -7.01895
H          0.41417       -3.40761       -5.56098
H         -1.92787       -3.49292       -4.64910
H         -2.73017       -2.31531       -7.37708
H         -3.86590       -2.95086       -6.17586
H         -2.91271       -1.52479       -5.80221
H         -1.90743       -4.61174       -7.38119
H         -3.81579       -5.21576       -6.03940
H         -2.72101       -6.57443       -6.30569
H         -2.68711       -5.73062       -4.75803

--Link1--
%chk=JID_5104.chk
%mem=8GB
%nprocshared=4
# B3LYP/6-311++G(d,p) empiricaldispersion=gd3bj scf=xqc pop=npa geom=check

CID_117223831_JID_5104_Energie_neutraal

0 1

--Link1--
%chk=JID_5104.chk
%mem=8GB
%nprocshared=4
# B3LYP/6-311++G(d,p) empiricaldispersion=gd3bj scf=xqc pop=npa geom=check

CID_117223831_JID_5104_Energie_kation

1 2

--Link1--
%chk=JID_5104.chk
%mem=8GB
%nprocshared=4
# B3LYP/6-311++G(d,p) empiricaldispersion=gd3bj scf=xqc pop=npa geom=check

CID_117223831_JID_5104_Energie_anion

-1 2
