%chk=JID_1080.chk
%mem=8GB
%nprocshared=4
# opt=(cartesian,calcfc) freq B3LYP/6-31G(d) empiricaldispersion=gd3bj scf=xqc

CID_88529655_JID_1080_neutraal

0 1
6	-2.693725	 -1.849142	 0.262002
6	-2.083956	 -0.766821	 -0.632110
6	-1.709291	 0.515450	 0.140028
6	-0.678195	 0.327311	 1.269270
6	0.562320	 -0.514776	 0.930671
6	1.594895	 0.128761	 -0.013515
6	2.380319	 1.274704	 0.632352
6	2.532029	 -0.928176	 -0.582010
8	2.215472	 -2.083700	 -0.786965
6	-1.365725	 1.635158	 -0.822116
8	-0.483947	 2.454697	 -0.673969
1	-1.982658	 -2.195967	 1.017696
1	-2.997725	 -2.719058	 -0.328933
1	-3.579720	 -1.471131	 0.785970
1	-1.200006	 -1.164667	 -1.145232
1	-2.802166	 -0.503269	 -1.419881
1	-2.645550	 0.875010	 0.607089
1	-0.379205	 1.317766	 1.627840
1	-1.189070	 -0.160518	 2.107263
1	1.076082	 -0.750843	 1.872933
1	0.263687	 -1.478491	 0.506899
1	1.079750	 0.535338	 -0.897168
1	2.889844	 0.934359	 1.542505
1	3.140089	 1.669192	 -0.052445
1	1.712529	 2.098747	 0.893380
1	3.562586	 -0.578293	 -0.823334
1	-2.032683	 1.689031	 -1.714548

--Link1--
%chk=JID_1080.chk
%mem=8GB
%nprocshared=4
# B3LYP/6-311++G(d,p) empiricaldispersion=gd3bj scf=xqc pop=npa geom=check

CID_88529655_JID_1080_Energie_neutraal

0 1

--Link1--
%chk=JID_1080.chk
%mem=8GB
%nprocshared=4
# B3LYP/6-311++G(d,p) empiricaldispersion=gd3bj scf=xqc pop=npa geom=check

CID_88529655_JID_1080_Energie_kation

1 2

--Link1--
%chk=JID_1080.chk
%mem=8GB
%nprocshared=4
# B3LYP/6-311++G(d,p) empiricaldispersion=gd3bj scf=xqc pop=npa geom=check

CID_88529655_JID_1080_Energie_anion

-1 2
