%chk=JID_7578.chk
%mem=8GB
%nprocshared=4
# opt freq B3LYP/6-31G(d) empiricaldispersion=gd3bj scf=xqc

CID_43299591_JID_7578_neutraal

0 1
C          2.34700       -0.01500        0.07300
C          1.56515        1.13292        0.13673
C          0.19182        1.04903       -0.08941
C         -0.41015       -0.18299       -0.39361
C          0.37602       -1.35007       -0.48107
C          1.75777       -1.24519       -0.22059
C         -0.21559       -2.70777       -0.80753
S          0.58668       -3.53081       -2.23258
C         -0.14971       -2.59284       -3.57364
C         -1.22782       -3.11351       -4.30726
C         -1.76523       -2.28160       -5.28801
N         -1.25965       -1.07653       -5.64451
C         -0.18305       -0.64763       -4.95757
C          0.40083       -1.35830       -3.92464
N         -1.87885       -4.30255       -3.92607
C         -1.83368       -0.20384       -0.58702
N         -2.98602       -0.21712       -0.71939
H          3.41700        0.04350        0.25962
H          2.02192        2.09123        0.37269
H         -0.41130        1.95371       -0.02072
H          2.39186       -2.13069       -0.25347
H         -0.08404       -3.35327        0.06867
H         -1.29156       -2.66658       -0.99841
H         -2.65350       -2.57588       -5.84005
H          0.20722        0.31900       -5.26303
H          1.26168       -0.94972       -3.40745
H         -2.36053       -4.76883       -4.68895
H         -1.24960       -4.92832       -3.42494

--Link1--
%chk=JID_7578.chk
%mem=8GB
%nprocshared=4
# B3LYP/6-311++G(d,p) empiricaldispersion=gd3bj scf=xqc pop=npa geom=check

CID_43299591_JID_7578_Energie_neutraal

0 1

--Link1--
%chk=JID_7578.chk
%mem=8GB
%nprocshared=4
# B3LYP/6-311++G(d,p) empiricaldispersion=gd3bj scf=xqc pop=npa geom=check

CID_43299591_JID_7578_Energie_kation

1 2

--Link1--
%chk=JID_7578.chk
%mem=8GB
%nprocshared=4
# B3LYP/6-311++G(d,p) empiricaldispersion=gd3bj scf=xqc pop=npa geom=check

CID_43299591_JID_7578_Energie_anion

-1 2
