%chk=JID_10105.chk
%mem=8GB
%nprocshared=4
# opt freq B3LYP/6-31G(d) empiricaldispersion=gd3bj scf=xqc

CID_131156754_JID_10105_neutraal

0 1
C          1.56600        1.36000        0.10300
C          2.44570        0.26310       -0.50221
O          1.62999       -0.89675       -0.79125
C          0.36370       -0.38310       -0.87874
C          0.25383        0.91582       -0.41439
C         -0.96564        1.57450       -0.41483
C         -2.09910        0.91058       -0.90530
C         -1.95522       -0.41546       -1.38225
C         -0.72268       -1.07482       -1.36147
N         -3.36815        1.51167       -1.01401
C         -3.75500        2.82074       -1.00514
N         -4.93278        3.30202       -0.80367
C         -6.02663        2.40023       -0.43237
C         -6.49875        1.48201       -1.53750
C         -6.92437        0.17928       -1.23914
C         -7.35573       -0.67421       -2.25638
C         -7.37561       -0.23171       -3.57813
C         -6.97842        1.06837       -3.88310
C         -6.54840        1.92237       -2.86746
N         -2.80318        3.73047       -1.33642
H          1.86701        2.35539       -0.23287
H          1.57855        1.31174        1.19669
H          3.25409       -0.02634        0.17709
H          2.89841        0.59418       -1.44571
H         -1.03354        2.57823       -0.00728
H         -2.81653       -0.94287       -1.78755
H         -0.61999       -2.09093       -1.72429
H         -4.12073        0.83612       -0.99974
H         -5.73424        1.82175        0.45339
H         -6.88091        3.01544       -0.12568
H         -6.92349       -0.17916       -0.21172
H         -7.68300       -1.68293       -2.01770
H         -7.70936       -0.89655       -4.37041
H         -7.00579        1.42127       -4.91074
H         -6.24114        2.93688       -3.11443
H         -2.21338        3.42055       -2.09828
H         -3.23793        4.62554       -1.53221

--Link1--
%chk=JID_10105.chk
%mem=8GB
%nprocshared=4
# B3LYP/6-311++G(d,p) empiricaldispersion=gd3bj scf=xqc pop=npa geom=check

CID_131156754_JID_10105_Energie_neutraal

0 1

--Link1--
%chk=JID_10105.chk
%mem=8GB
%nprocshared=4
# B3LYP/6-311++G(d,p) empiricaldispersion=gd3bj scf=xqc pop=npa geom=check

CID_131156754_JID_10105_Energie_kation

1 2

--Link1--
%chk=JID_10105.chk
%mem=8GB
%nprocshared=4
# B3LYP/6-311++G(d,p) empiricaldispersion=gd3bj scf=xqc pop=npa geom=check

CID_131156754_JID_10105_Energie_anion

-1 2
