%chk=JID_3301.chk
%mem=8GB
%nprocshared=4
# opt freq B3LYP/6-31G(d) empiricaldispersion=gd3bj scf=xqc

CID_82998496_JID_3301_neutraal

0 1
C          0.92547       -0.06326        0.02105
C          0.30461        0.25763       -1.34251
C          0.69434       -0.81452       -2.36242
C         -1.21811        0.45518       -1.28992
C         -1.98970       -0.65853       -0.60924
O         -2.03401       -1.83912       -0.90779
N         -2.64092       -0.07496        0.42463
C         -2.33829        1.23169        0.46658
N         -1.54135        1.65896       -0.46242
N         -2.82341        2.05674        1.42402
C         -3.98409        1.83544        2.26307
C         -3.86694        2.71266        3.50702
C         -5.25521        2.16323        1.48678
H          0.56284       -1.01712        0.41773
H          0.70385        0.71903        0.75379
H          2.01566       -0.13320       -0.06219
H          0.74797        1.20337       -1.68301
H          0.35081       -1.80850       -2.05975
H          0.26887       -0.59050       -3.34620
H          1.78311       -0.86038       -2.47476
H         -1.63511        0.60921       -2.29198
H         -3.21182       -0.58923        1.06914
H         -2.59337        3.02989        1.24040
H         -4.02118        0.79101        2.59248
H         -3.82990        3.77632        3.24592
H         -4.71866        2.55560        4.17690
H         -2.95186        2.47738        4.06191
H         -5.35277        1.52104        0.60480
H         -6.14223        2.01399        2.11122
H         -5.25400        3.20251        1.13929

--Link1--
%chk=JID_3301.chk
%mem=8GB
%nprocshared=4
# B3LYP/6-311++G(d,p) empiricaldispersion=gd3bj scf=xqc pop=npa geom=check

CID_82998496_JID_3301_Energie_neutraal

0 1

--Link1--
%chk=JID_3301.chk
%mem=8GB
%nprocshared=4
# B3LYP/6-311++G(d,p) empiricaldispersion=gd3bj scf=xqc pop=npa geom=check

CID_82998496_JID_3301_Energie_kation

1 2

--Link1--
%chk=JID_3301.chk
%mem=8GB
%nprocshared=4
# B3LYP/6-311++G(d,p) empiricaldispersion=gd3bj scf=xqc pop=npa geom=check

CID_82998496_JID_3301_Energie_anion

-1 2
