%chk=JID_7207.chk
%mem=8GB
%nprocshared=4
# opt freq B3LYP/6-31G(d) empiricaldispersion=gd3bj scf=xqc

CID_81247622_JID_7207_neutraal

0 1
C          2.44200       -0.09800       -0.00700
C          0.96391       -0.24894       -0.20367
C          0.31174       -1.38976        0.25498
C         -1.06974       -1.53063        0.05952
C         -1.76012       -0.49091       -0.58282
C         -1.01696        0.61209       -1.00072
N          0.31770        0.75430       -0.83183
C         -3.23897       -0.53291       -0.86863
N         -3.94688        0.56055       -0.19012
C         -5.37502        0.50103       -0.46654
N         -1.77440       -2.67192        0.50917
C         -1.90579       -2.65514        1.97128
C         -1.29261       -3.95676       -0.03670
C         -1.60146       -4.10795       -1.52434
C         -0.63899       -3.45868       -2.55936
C         -0.86363       -4.70343       -3.44037
C         -1.18705       -5.47131       -2.14378
H          2.79646        0.85016       -0.42401
H          2.68504       -0.11290        1.05999
H          2.97506       -0.91134       -0.50915
H          0.88007       -2.16114        0.76240
H         -1.50126        1.44653       -1.50321
H         -3.37476       -0.45351       -1.95505
H         -3.67270       -1.49320       -0.56923
H         -3.79478        0.45487        0.81290
H         -5.81516       -0.43782       -0.11481
H         -5.88027        1.32288        0.05016
H         -5.57584        0.61221       -1.53698
H         -2.60295       -3.43823        2.28914
H         -0.94568       -2.83370        2.46896
H         -2.31681       -1.70083        2.32137
H         -0.22594       -4.11116        0.16791
H         -1.81909       -4.76346        0.49021
H         -2.65684       -3.87932       -1.73621
H         -0.97146       -2.51272       -2.99413
H          0.39649       -3.35140       -2.21603
H          0.00727       -5.05573       -3.99833
H         -1.71526       -4.61261       -4.12428
H         -0.30844       -5.93478       -1.67939
H         -1.98164       -6.21789       -2.22207

--Link1--
%chk=JID_7207.chk
%mem=8GB
%nprocshared=4
# B3LYP/6-311++G(d,p) empiricaldispersion=gd3bj scf=xqc pop=npa geom=check

CID_81247622_JID_7207_Energie_neutraal

0 1

--Link1--
%chk=JID_7207.chk
%mem=8GB
%nprocshared=4
# B3LYP/6-311++G(d,p) empiricaldispersion=gd3bj scf=xqc pop=npa geom=check

CID_81247622_JID_7207_Energie_kation

1 2

--Link1--
%chk=JID_7207.chk
%mem=8GB
%nprocshared=4
# B3LYP/6-311++G(d,p) empiricaldispersion=gd3bj scf=xqc pop=npa geom=check

CID_81247622_JID_7207_Energie_anion

-1 2
