%chk=JID_4357.chk
%mem=8GB
%nprocshared=4
# opt freq B3LYP/6-31G(d) empiricaldispersion=gd3bj scf=xqc

CID_17752573_JID_4357_neutraal

0 1
C          0.98396       -0.07173       -0.06781
O          0.28100        1.14681        0.13955
C          0.78905        2.00047        1.07894
C          0.04764        3.16779        1.27016
C          0.45195        4.12756        2.20351
C          1.60456        3.92771        2.97032
C          2.35603        2.76468        2.76074
C          1.94929        1.80383        1.82597
C          2.08565        4.91687        3.94550
C          1.26931        5.62193        4.74371
O          1.57412        6.54650        5.70223
C          2.93546        6.93582        5.91787
C          3.54369        6.15265        7.07999
O          3.76536        4.78761        6.73538
H          0.44409       -0.64372       -0.82861
H          1.00911       -0.67441        0.84615
H          1.99409        0.11550       -0.44676
H         -0.85263        3.33500        0.68370
H         -0.14068        5.03247        2.31156
H          3.26566        2.58798        3.33172
H          2.56359        0.91769        1.70777
H          3.16501        5.01289        4.00502
H          0.18951        5.50657        4.72088
H          3.53874        6.86395        5.00748
H          2.90798        7.99562        6.19468
H          4.51038        6.58318        7.35699
H          2.88641        6.17461        7.95520
H          2.88612        4.40878        6.54987

--Link1--
%chk=JID_4357.chk
%mem=8GB
%nprocshared=4
# B3LYP/6-311++G(d,p) empiricaldispersion=gd3bj scf=xqc pop=npa geom=check

CID_17752573_JID_4357_Energie_neutraal

0 1

--Link1--
%chk=JID_4357.chk
%mem=8GB
%nprocshared=4
# B3LYP/6-311++G(d,p) empiricaldispersion=gd3bj scf=xqc pop=npa geom=check

CID_17752573_JID_4357_Energie_kation

1 2

--Link1--
%chk=JID_4357.chk
%mem=8GB
%nprocshared=4
# B3LYP/6-311++G(d,p) empiricaldispersion=gd3bj scf=xqc pop=npa geom=check

CID_17752573_JID_4357_Energie_anion

-1 2
