%chk=JID_7268.chk
%mem=8GB
%nprocshared=4
# opt freq B3LYP/6-31G(d) empiricaldispersion=gd3bj scf=xqc

CID_84689131_JID_7268_neutraal

0 1
C          1.34400       -0.22500        0.03600
C          0.87065        1.08130       -0.06911
C         -0.48751        1.34714        0.10681
C         -1.38489        0.30785        0.39326
C         -0.89864       -1.00331        0.48912
C          0.46041       -1.26698        0.31182
C         -2.85008        0.60301        0.60704
O         -3.04425        1.56074        1.65902
C         -3.23014        0.95963        2.88344
C         -4.45747        0.70998        3.38196
C         -4.58335        0.12559        4.67552
C         -5.63738       -0.26946        5.46289
C         -5.03531       -0.76426        6.63034
N         -3.70385       -0.69503        6.60009
N         -3.41313       -0.13880        5.39545
C         -2.14923        0.16021        4.88483
C         -2.02787        0.70830        3.66427
H          2.40251       -0.43160       -0.09911
H          1.55956        1.89402       -0.28402
H         -0.84565        2.37223        0.03398
H         -1.57250       -1.82726        0.71317
H          0.83107       -2.28566        0.39248
H         -3.24820        1.04717       -0.31322
H         -3.43129       -0.31224        0.78322
H         -5.34776        0.94812        2.81002
H         -6.69052       -0.20863        5.23054
H         -5.51479       -1.17571        7.50947
H         -1.30939       -0.06578        5.52714
H         -1.05941        0.96771        3.25176

--Link1--
%chk=JID_7268.chk
%mem=8GB
%nprocshared=4
# B3LYP/6-311++G(d,p) empiricaldispersion=gd3bj scf=xqc pop=npa geom=check

CID_84689131_JID_7268_Energie_neutraal

0 1

--Link1--
%chk=JID_7268.chk
%mem=8GB
%nprocshared=4
# B3LYP/6-311++G(d,p) empiricaldispersion=gd3bj scf=xqc pop=npa geom=check

CID_84689131_JID_7268_Energie_kation

1 2

--Link1--
%chk=JID_7268.chk
%mem=8GB
%nprocshared=4
# B3LYP/6-311++G(d,p) empiricaldispersion=gd3bj scf=xqc pop=npa geom=check

CID_84689131_JID_7268_Energie_anion

-1 2
