%chk=JID_10252.chk
%mem=8GB
%nprocshared=4
# opt freq B3LYP/6-31G(d) empiricaldispersion=gd3bj scf=xqc

CID_106372390_JID_10252_neutraal

0 1
C          2.24700        0.13300       -0.01700
C          0.78796        0.22253       -0.18075
C         -0.08400        1.19306       -0.61222
N         -1.37097        0.72089       -0.56635
C         -1.24269       -0.50683       -0.10152
O          0.05378       -0.88165        0.14778
C         -2.29312       -1.53929        0.14850
N         -2.03513       -2.71343       -0.68429
S         -3.27008       -3.70033       -1.17969
O         -4.46709       -2.92776       -1.40910
O         -2.70601       -4.47997       -2.26279
C         -3.51025       -4.80563        0.19044
C         -2.87586       -6.06170        0.09692
C         -3.03109       -7.02224        1.09601
C         -3.82981       -6.74718        2.19713
C         -4.46605       -5.50946        2.29953
C         -4.31304       -4.51935        1.30525
C         -5.02748       -3.24436        1.56648
S         -4.78433       -2.29132        2.92120
N         -5.99562       -2.87821        0.67735
H          2.50192       -0.22263        0.98602
H          2.67142       -0.56205       -0.74778
H          2.71875        1.10991       -0.16073
H          0.14259        2.19406       -0.95280
H         -2.24817       -1.83337        1.19956
H         -3.27362       -1.10375       -0.06177
H         -1.22484       -2.69270       -1.30321
H         -2.25095       -6.30835       -0.76097
H         -2.53337       -7.98549        1.00846
H         -3.96137       -7.49287        2.97787
H         -5.09428       -5.32361        3.17039
H         -6.00496       -3.23344       -0.27798
H         -6.43566       -1.97187        0.79426

--Link1--
%chk=JID_10252.chk
%mem=8GB
%nprocshared=4
# B3LYP/6-311++G(d,p) empiricaldispersion=gd3bj scf=xqc pop=npa geom=check

CID_106372390_JID_10252_Energie_neutraal

0 1

--Link1--
%chk=JID_10252.chk
%mem=8GB
%nprocshared=4
# B3LYP/6-311++G(d,p) empiricaldispersion=gd3bj scf=xqc pop=npa geom=check

CID_106372390_JID_10252_Energie_kation

1 2

--Link1--
%chk=JID_10252.chk
%mem=8GB
%nprocshared=4
# B3LYP/6-311++G(d,p) empiricaldispersion=gd3bj scf=xqc pop=npa geom=check

CID_106372390_JID_10252_Energie_anion

-1 2
