%chk=JID_1085.chk
%mem=8GB
%nprocshared=4
# opt freq B3LYP/6-31G(d) empiricaldispersion=gd3bj scf=xqc

CID_64116356_JID_1085_neutraal

0 1
C          1.09064        0.01654       -0.03887
C          0.66106        1.48369       -0.15976
C          1.58317        2.22594       -1.13404
N         -0.78200        1.63525       -0.39451
C         -1.25576        3.00986       -0.28220
C         -1.41901        0.87969       -1.47814
C         -1.06899        1.20550       -2.90904
C         -0.30105        0.40397       -3.67159
C         -1.74604        2.37356       -3.51596
O         -2.71477        2.95583       -3.06161
O         -1.17665        2.78566       -4.66306
H          1.05794       -0.50558       -0.99939
H          0.45246       -0.52255        0.67002
H          2.11896       -0.04959        0.33427
H          0.85420        1.91733        0.83164
H          1.54759        1.81063       -2.14294
H          1.34301        3.29183       -1.19109
H          2.62304        2.15407       -0.79437
H         -0.91698        3.64394       -1.10672
H         -2.35046        3.04290       -0.24855
H         -0.91056        3.46221        0.65444
H         -1.24253       -0.18971       -1.30248
H         -2.50926        0.95990       -1.36171
H         -0.10222        0.61601       -4.71794
H          0.15517       -0.49184       -3.26378
H         -1.72157        3.55571       -4.92523

--Link1--
%chk=JID_1085.chk
%mem=8GB
%nprocshared=4
# B3LYP/6-311++G(d,p) empiricaldispersion=gd3bj scf=xqc pop=npa geom=check

CID_64116356_JID_1085_Energie_neutraal

0 1

--Link1--
%chk=JID_1085.chk
%mem=8GB
%nprocshared=4
# B3LYP/6-311++G(d,p) empiricaldispersion=gd3bj scf=xqc pop=npa geom=check

CID_64116356_JID_1085_Energie_kation

1 2

--Link1--
%chk=JID_1085.chk
%mem=8GB
%nprocshared=4
# B3LYP/6-311++G(d,p) empiricaldispersion=gd3bj scf=xqc pop=npa geom=check

CID_64116356_JID_1085_Energie_anion

-1 2
