%chk=JID_3551.chk
%mem=8GB
%nprocshared=4
# opt freq B3LYP/6-31G(d) empiricaldispersion=gd3bj scf=xqc

CID_152863341_JID_3551_neutraal

0 1
C          0.98872        0.08947       -0.04322
C          0.30617       -1.24811       -0.30125
C          1.07135       -2.44732        0.29664
C          0.27829       -3.75449        0.14883
C          0.24179       -4.28533       -1.28605
C          1.65381       -4.46732       -1.88462
C          2.47378       -3.16786       -1.72375
C          2.44838       -2.63675       -0.30898
C          3.54194       -2.38137        0.35718
C          4.62714       -2.12472        1.02015
C          1.59273       -4.92946       -3.37307
C          2.98825       -5.12848       -3.97867
C          0.79870       -6.23085       -3.54564
H          1.15566        0.24553        1.02724
H          0.36017        0.90749       -0.40979
H          1.95160        0.15550       -0.55852
H         -0.69707       -1.21016        0.14143
H          0.16471       -1.36686       -1.38148
H          1.17585       -2.25997        1.37500
H          0.73050       -4.52136        0.79242
H         -0.74746       -3.61616        0.51161
H         -0.34743       -3.60976       -1.91762
H         -0.28846       -5.24376       -1.26876
H          2.15852       -5.25428       -1.30539
H          2.09096       -2.39525       -2.40202
H          3.51503       -3.34995       -2.01511
H          5.58384       -2.07167        0.51408
H          4.59348       -1.95610        2.09005
H          1.08543       -4.15235       -3.96004
H          3.58699       -5.81860       -3.37490
H          2.92015       -5.53849       -4.99242
H          3.52925       -4.18113       -4.05988
H         -0.25982       -6.08973       -3.30837
H          0.84357       -6.58205       -4.58251
H          1.19480       -7.02431       -2.90311

--Link1--
%chk=JID_3551.chk
%mem=8GB
%nprocshared=4
# B3LYP/6-311++G(d,p) empiricaldispersion=gd3bj scf=xqc pop=npa geom=check

CID_152863341_JID_3551_Energie_neutraal

0 1

--Link1--
%chk=JID_3551.chk
%mem=8GB
%nprocshared=4
# B3LYP/6-311++G(d,p) empiricaldispersion=gd3bj scf=xqc pop=npa geom=check

CID_152863341_JID_3551_Energie_kation

1 2

--Link1--
%chk=JID_3551.chk
%mem=8GB
%nprocshared=4
# B3LYP/6-311++G(d,p) empiricaldispersion=gd3bj scf=xqc pop=npa geom=check

CID_152863341_JID_3551_Energie_anion

-1 2
