%chk=JID_9745.chk
%mem=8GB
%nprocshared=4
# opt freq B3LYP/6-31G(d) empiricaldispersion=gd3bj scf=xqc

CID_150653949_JID_9745_neutraal

0 1
C          1.05021        0.01358       -0.08541
C          0.14492       -0.51726        1.02879
C          0.82973       -0.44435        2.39177
C          1.07662        0.77219        3.08532
C          1.75805        0.71936        4.32212
C          2.14370       -0.51432        4.86863
C          1.88437       -1.70173        4.19539
C          1.23885       -1.66652        2.96513
S          2.17433        2.16849        5.28436
C          1.56940        3.50658        4.27868
C          1.76065        4.81512        4.74899
C          1.31507        5.91115        4.00968
C          0.67695        5.70798        2.79142
C          0.48182        4.40941        2.31867
C          0.90956        3.29516        3.06056
N          0.73250        2.01248        2.50912
C         -1.21137        0.18271        1.04029
O         -1.40309        1.30108        0.57070
N         -2.21615       -0.48897        1.67640
H          1.29319        1.07385        0.03523
H          0.56043       -0.09499       -1.05961
H          1.99457       -0.54089       -0.11860
H         -0.06551       -1.56862        0.78622
H          2.66077       -0.55379        5.82520
H          2.19711       -2.65019        4.62448
H          1.06544       -2.60736        2.44532
H          2.26439        4.98853        5.69725
H          1.47215        6.91953        4.38310
H          0.33495        6.55643        2.20465
H         -0.00965        4.26812        1.35821
H          0.05900        2.00042        1.74704
H         -2.00062       -1.20645        2.35668
H         -3.07976        0.02300        1.80807

--Link1--
%chk=JID_9745.chk
%mem=8GB
%nprocshared=4
# B3LYP/6-311++G(d,p) empiricaldispersion=gd3bj scf=xqc pop=npa geom=check

CID_150653949_JID_9745_Energie_neutraal

0 1

--Link1--
%chk=JID_9745.chk
%mem=8GB
%nprocshared=4
# B3LYP/6-311++G(d,p) empiricaldispersion=gd3bj scf=xqc pop=npa geom=check

CID_150653949_JID_9745_Energie_kation

1 2

--Link1--
%chk=JID_9745.chk
%mem=8GB
%nprocshared=4
# B3LYP/6-311++G(d,p) empiricaldispersion=gd3bj scf=xqc pop=npa geom=check

CID_150653949_JID_9745_Energie_anion

-1 2
