%chk=JID_2766.chk
%mem=8GB
%nprocshared=4
# opt freq B3LYP/6-31G(d) empiricaldispersion=gd3bj scf=xqc

CID_148713185_JID_2766_neutraal

0 1
C          0.70300        1.24700       -0.25500
C         -0.78256        1.20687        0.11587
C         -1.46674       -0.09300       -0.29776
C         -0.69123       -1.32632        0.18903
C          0.78119       -1.27965       -0.21802
C          1.46890        0.01408        0.25224
C          2.94359        0.00494       -0.20512
C          3.78726        1.19721        0.24205
C          3.99149        1.21797        1.73444
O          5.09139        1.10143        2.26529
O         -1.27667       -2.50766       -0.35865
O         -1.61897       -0.15736       -1.72251
H          1.13159        2.16116        0.17032
H          0.80927        1.32895       -1.34359
H         -0.87732        1.33153        1.20162
H         -1.28421        2.05901       -0.35748
H         -2.48404       -0.12279        0.10788
H         -0.76047       -1.39623        1.28073
H          0.87127       -1.38744       -1.30713
H          1.29476       -2.15424        0.20201
H          1.44216        0.02197        1.34950
H          3.41843       -0.91523        0.16024
H          2.97602       -0.04290       -1.30133
H          4.77522        1.13162       -0.22879
H          3.35005        2.15145       -0.06345
H          3.08657        1.37299        2.34525
H         -1.67958       -2.24158       -1.20975
H         -0.75786        0.01530       -2.13924

--Link1--
%chk=JID_2766.chk
%mem=8GB
%nprocshared=4
# B3LYP/6-311++G(d,p) empiricaldispersion=gd3bj scf=xqc pop=npa geom=check

CID_148713185_JID_2766_Energie_neutraal

0 1

--Link1--
%chk=JID_2766.chk
%mem=8GB
%nprocshared=4
# B3LYP/6-311++G(d,p) empiricaldispersion=gd3bj scf=xqc pop=npa geom=check

CID_148713185_JID_2766_Energie_kation

1 2

--Link1--
%chk=JID_2766.chk
%mem=8GB
%nprocshared=4
# B3LYP/6-311++G(d,p) empiricaldispersion=gd3bj scf=xqc pop=npa geom=check

CID_148713185_JID_2766_Energie_anion

-1 2
