%chk=JID_5511.chk
%mem=8GB
%nprocshared=4
# opt freq B3LYP/6-31G(d) empiricaldispersion=gd3bj scf=xqc

CID_63273709_JID_5511_neutraal

0 1
C          1.03585        0.03246        0.08753
N         -0.04828       -0.35088       -0.80229
C         -1.03653        0.71540       -0.99408
C         -0.62152        1.83050       -1.95675
C         -0.83042        1.40480       -3.39824
O         -1.97275        1.41214       -3.86426
N          0.26880        0.97212       -4.13609
C          1.64652        1.20854       -3.72873
C          0.05336        0.56479       -5.52838
C         -0.08209       -0.94525       -5.75033
C         -1.29953       -1.61584       -5.11225
C         -0.85070       -3.04931       -4.82542
N          0.50744       -3.14116       -5.37385
C          1.07585       -1.79733       -5.25049
C          1.30911       -4.15619       -4.70763
H          0.65766        0.28536        1.08333
H          1.61142        0.87840       -0.29811
H          1.72296       -0.81130        0.20546
H          0.31211       -0.66542       -1.70221
H         -1.95643        0.24286       -1.35925
H         -1.29400        1.15283       -0.02147
H         -1.28048        2.69460       -1.79753
H          0.38428        2.20539       -1.76135
H          2.33784        0.64505       -4.36124
H          1.85812        2.27763       -3.82217
H          1.80266        0.89676       -2.69611
H         -0.84643        1.05678       -5.91666
H          0.88736        0.95180       -6.12725
H         -0.16518       -1.09207       -6.83844
H         -2.15807       -1.58846       -5.79173
H         -1.59652       -1.14053       -4.17377
H         -1.51405       -3.77895       -5.30081
H         -0.87120       -3.22230       -3.74190
H          1.33047       -1.57162       -4.20831
H          1.96732       -1.67394       -5.87350
H          2.30700       -4.20858       -5.15631
H          1.42559       -3.96020       -3.63564
H          0.85179       -5.14416       -4.82891

--Link1--
%chk=JID_5511.chk
%mem=8GB
%nprocshared=4
# B3LYP/6-311++G(d,p) empiricaldispersion=gd3bj scf=xqc pop=npa geom=check

CID_63273709_JID_5511_Energie_neutraal

0 1

--Link1--
%chk=JID_5511.chk
%mem=8GB
%nprocshared=4
# B3LYP/6-311++G(d,p) empiricaldispersion=gd3bj scf=xqc pop=npa geom=check

CID_63273709_JID_5511_Energie_kation

1 2

--Link1--
%chk=JID_5511.chk
%mem=8GB
%nprocshared=4
# B3LYP/6-311++G(d,p) empiricaldispersion=gd3bj scf=xqc pop=npa geom=check

CID_63273709_JID_5511_Energie_anion

-1 2
