%chk=JID_7290.chk
%mem=8GB
%nprocshared=4
# opt freq B3LYP/6-31G(d) empiricaldispersion=gd3bj scf=xqc

CID_112731746_JID_7290_neutraal

0 1
C          0.72100        1.17000        0.25400
C         -0.71007        1.16966       -0.27714
O         -1.41034       -0.00346        0.16213
C         -0.70761       -1.18826       -0.26694
C          0.70779       -1.18452        0.31983
O          1.41724       -0.02278       -0.13935
C         -1.49219       -2.44275        0.15889
N         -2.89889       -2.41684       -0.27995
C         -3.18219       -2.28166       -1.62621
C         -4.42351       -2.07714       -2.07817
C         -5.53425       -2.04120       -1.11251
O         -6.69294       -1.82990       -1.44920
N         -5.18232       -2.25801        0.19335
C         -3.90619       -2.39993        0.68263
O         -3.71994       -2.50590        1.89155
C         -4.65754       -1.77749       -3.54985
N         -4.85168       -1.52891       -4.77073
H          1.27342        2.02960       -0.13690
H          0.72878        1.22740        1.34867
H         -0.72079        1.19077       -1.37297
H         -1.25381        2.04626        0.08714
H         -0.63746       -1.14788       -1.36129
H          1.26683       -2.06663       -0.00745
H          0.69077       -1.17235        1.41606
H         -1.02824       -3.34331       -0.26136
H         -1.45535       -2.53754        1.24971
H         -2.33815       -2.29445       -2.31076
H         -5.91931       -2.21889        0.88109

--Link1--
%chk=JID_7290.chk
%mem=8GB
%nprocshared=4
# B3LYP/6-311++G(d,p) empiricaldispersion=gd3bj scf=xqc pop=npa geom=check

CID_112731746_JID_7290_Energie_neutraal

0 1

--Link1--
%chk=JID_7290.chk
%mem=8GB
%nprocshared=4
# B3LYP/6-311++G(d,p) empiricaldispersion=gd3bj scf=xqc pop=npa geom=check

CID_112731746_JID_7290_Energie_kation

1 2

--Link1--
%chk=JID_7290.chk
%mem=8GB
%nprocshared=4
# B3LYP/6-311++G(d,p) empiricaldispersion=gd3bj scf=xqc pop=npa geom=check

CID_112731746_JID_7290_Energie_anion

-1 2
