%chk=JID_4791.chk
%mem=8GB
%nprocshared=4
# opt freq B3LYP/6-31G(d) empiricaldispersion=gd3bj scf=xqc

CID_60902730_JID_4791_neutraal

0 1
C          1.04162        0.08147        0.04037
C          0.22126        0.29694       -1.22117
C          0.86556       -0.31304       -2.47844
C          1.02728       -1.83295       -2.43966
O          0.25663        0.17290       -3.68801
C         -1.09389       -0.03925       -3.82876
N         -1.60591       -1.25161       -3.54401
C         -2.92904       -1.42696       -3.78604
C         -3.76602       -0.43420       -4.28362
C         -3.19995        0.81011       -4.57234
C         -1.83656        1.00427       -4.35803
C         -5.20839       -0.67503       -4.50453
S         -5.85946       -2.05155       -5.18809
N         -6.05516        0.32757       -4.10561
H          1.10271       -0.97977        0.29942
H          0.57857        0.60380        0.88369
H          2.05845        0.46825       -0.07961
H         -0.78355       -0.11338       -1.06673
H          0.08614        1.37464       -1.37739
H          1.88536        0.09019       -2.53384
H          0.11155       -2.33437       -2.11215
H          1.28677       -2.22397       -3.42871
H          1.81580       -2.12181       -1.73707
H         -3.29931       -2.42041       -3.54624
H         -3.79748        1.61431       -4.99075
H         -1.36092        1.94955       -4.59565
H         -5.74991        1.14569       -3.59273
H         -7.05500        0.18422       -4.19971

--Link1--
%chk=JID_4791.chk
%mem=8GB
%nprocshared=4
# B3LYP/6-311++G(d,p) empiricaldispersion=gd3bj scf=xqc pop=npa geom=check

CID_60902730_JID_4791_Energie_neutraal

0 1

--Link1--
%chk=JID_4791.chk
%mem=8GB
%nprocshared=4
# B3LYP/6-311++G(d,p) empiricaldispersion=gd3bj scf=xqc pop=npa geom=check

CID_60902730_JID_4791_Energie_kation

1 2

--Link1--
%chk=JID_4791.chk
%mem=8GB
%nprocshared=4
# B3LYP/6-311++G(d,p) empiricaldispersion=gd3bj scf=xqc pop=npa geom=check

CID_60902730_JID_4791_Energie_anion

-1 2
