%chk=JID_7365.chk
%mem=8GB
%nprocshared=4
# opt freq B3LYP/6-31G(d) empiricaldispersion=gd3bj scf=xqc

CID_139798873_JID_7365_neutraal

0 1
C          1.09441        0.03269       -0.00433
C          0.63422       -0.79453        1.18607
C          1.09069       -0.23334        2.53508
C          0.61637        1.18900        2.86004
C         -0.89984        1.42354        2.80921
C         -1.65916        0.61491        3.82408
C         -2.50715        1.01593        4.80339
C         -3.14360        0.00723        5.76537
C         -4.42236       -0.57662        5.21603
C         -4.33844       -1.91687        5.18135
C         -3.05199       -2.32963        5.68393
C         -2.33856       -1.24654        6.02484
C         -2.95834        2.43990        5.10416
C         -1.87169        3.32850        5.65132
C         -1.80589        4.46042        4.93001
C         -2.77721        4.40647        3.86342
C         -3.43827        3.23962        3.91948
H          0.63117        1.02364       -0.00798
H          0.81677       -0.46641       -0.93829
H          2.18171        0.15837        0.00208
H         -0.45628       -0.89495        1.16293
H          1.03828       -1.80884        1.08137
H          0.76449       -0.91801        3.32693
H          2.18775       -0.24246        2.56717
H          0.98600        1.45448        3.85924
H          1.09752        1.89063        2.16760
H         -1.05806        2.49266        2.94186
H         -1.28618        1.18451        1.81244
H         -1.49510       -0.45653        3.71294
H         -3.33198        0.47720        6.73915
H         -5.27774        0.00426        4.90598
H         -5.10300       -2.59671        4.83749
H         -2.73259       -3.35755        5.76493
H         -1.34055       -1.25327        6.43681
H         -3.78499        2.42327        5.82728
H         -1.26360        3.09550        6.51187
H         -1.13065        5.28590        5.09573
H         -2.91553        5.18518        3.12898
H         -4.21682        2.92268        3.24263

--Link1--
%chk=JID_7365.chk
%mem=8GB
%nprocshared=4
# B3LYP/6-311++G(d,p) empiricaldispersion=gd3bj scf=xqc pop=npa geom=check

CID_139798873_JID_7365_Energie_neutraal

0 1

--Link1--
%chk=JID_7365.chk
%mem=8GB
%nprocshared=4
# B3LYP/6-311++G(d,p) empiricaldispersion=gd3bj scf=xqc pop=npa geom=check

CID_139798873_JID_7365_Energie_kation

1 2

--Link1--
%chk=JID_7365.chk
%mem=8GB
%nprocshared=4
# B3LYP/6-311++G(d,p) empiricaldispersion=gd3bj scf=xqc pop=npa geom=check

CID_139798873_JID_7365_Energie_anion

-1 2
