%chk=JID_5775.chk
%mem=8GB
%nprocshared=4
# opt freq B3LYP/6-31G(d) empiricaldispersion=gd3bj scf=xqc

CID_96657409_JID_5775_neutraal

0 1
C          2.49200        0.00400       -0.01400
C          0.99074        0.05596       -0.09968
C          0.21845       -1.07214       -0.43954
C         -1.18112       -0.94117       -0.52891
C         -1.82763        0.27924       -0.28418
C         -1.04543        1.38804        0.04981
C          0.34385        1.27889        0.13547
C         -3.33846        0.41064       -0.35116
C         -3.89682       -0.02096       -1.70986
C         -4.00686       -0.36842        0.78442
C          0.83419       -2.43195       -0.69719
C          1.01592       -3.28114        0.56788
C         -0.27664       -3.77144        1.23303
N         -1.01704       -4.69789        0.37324
C         -2.22455       -5.17159        1.03794
H          2.81547       -0.78736        0.66808
H          2.92058       -0.16898       -1.00614
H          2.90523        0.94419        0.36704
H         -1.77721       -1.81420       -0.78561
H         -1.50940        2.35179        0.24744
H          0.92179        2.16463        0.39094
H         -3.60226        1.46874       -0.22111
H         -3.75130       -1.09082       -1.89411
H         -4.97257        0.17908       -1.76317
H         -3.41261        0.52819       -2.52492
H         -3.63071       -0.03887        1.75949
H         -5.09095       -0.21234        0.77366
H         -3.82331       -1.44566        0.70406
H          0.23852       -2.97009       -1.44443
H          1.81197       -2.29806       -1.17570
H          1.63008       -4.15407        0.31047
H          1.58797       -2.71498        1.31296
H          0.00200       -4.28966        2.15903
H         -0.90386       -2.91992        1.51858
H         -1.28095       -4.23122       -0.49238
H         -2.90498       -4.34544        1.26910
H         -2.75271       -5.86797        0.37920
H         -1.98494       -5.70921        1.96094

--Link1--
%chk=JID_5775.chk
%mem=8GB
%nprocshared=4
# B3LYP/6-311++G(d,p) empiricaldispersion=gd3bj scf=xqc pop=npa geom=check

CID_96657409_JID_5775_Energie_neutraal

0 1

--Link1--
%chk=JID_5775.chk
%mem=8GB
%nprocshared=4
# B3LYP/6-311++G(d,p) empiricaldispersion=gd3bj scf=xqc pop=npa geom=check

CID_96657409_JID_5775_Energie_kation

1 2

--Link1--
%chk=JID_5775.chk
%mem=8GB
%nprocshared=4
# B3LYP/6-311++G(d,p) empiricaldispersion=gd3bj scf=xqc pop=npa geom=check

CID_96657409_JID_5775_Energie_anion

-1 2
