%chk=JID_7779.chk
%mem=8GB
%nprocshared=4
# opt freq B3LYP/6-31G(d) empiricaldispersion=gd3bj scf=xqc

CID_113754177_JID_7779_neutraal

0 1
C          1.04728       -0.05646        0.06765
O          0.58348        0.32267        1.35497
C          1.47596       -0.10536        2.38691
C          0.90169        0.25009        3.76019
O         -0.01344       -0.74240        4.23939
C         -1.33637       -0.65089        3.69615
C         -2.16160        0.44950        4.36127
C         -2.51359        1.54187        3.39038
N         -1.81017        2.68832        3.44639
C         -2.14229        3.63582        2.54914
C         -3.14602        3.49271        1.61487
C         -3.53080        4.59810        0.68259
N         -4.38231        4.16024       -0.43020
C         -5.47419        3.31262        0.05888
C         -4.92922        2.01826        0.66736
C         -3.82839        2.29007        1.65706
N         -3.52404        1.30372        2.53007
H          2.02641        0.38827       -0.13449
H          0.33602        0.31140       -0.67670
H          1.10409       -1.14622       -0.01301
H          1.63334       -1.18709        2.31011
H          2.42989        0.41563        2.24890
H          1.72522        0.25990        4.48199
H          0.44242        1.24175        3.76759
H         -1.31327       -0.59151        2.60425
H         -1.80510       -1.61227        3.93701
H         -3.10382        0.02444        4.72876
H         -1.64221        0.87223        5.22873
H         -1.55641        4.54816        2.61446
H         -2.62718        5.04916        0.25740
H         -4.05278        5.37499        1.25500
H         -4.76644        4.98065       -0.89736
H         -6.07662        3.86244        0.79354
H         -6.13885        3.06381       -0.77578
H         -5.74340        1.47314        1.15817
H         -4.52537        1.37575       -0.12469

--Link1--
%chk=JID_7779.chk
%mem=8GB
%nprocshared=4
# B3LYP/6-311++G(d,p) empiricaldispersion=gd3bj scf=xqc pop=npa geom=check

CID_113754177_JID_7779_Energie_neutraal

0 1

--Link1--
%chk=JID_7779.chk
%mem=8GB
%nprocshared=4
# B3LYP/6-311++G(d,p) empiricaldispersion=gd3bj scf=xqc pop=npa geom=check

CID_113754177_JID_7779_Energie_kation

1 2

--Link1--
%chk=JID_7779.chk
%mem=8GB
%nprocshared=4
# B3LYP/6-311++G(d,p) empiricaldispersion=gd3bj scf=xqc pop=npa geom=check

CID_113754177_JID_7779_Energie_anion

-1 2
