%chk=JID_7108.chk
%mem=8GB
%nprocshared=4
# opt freq B3LYP/6-31G(d) empiricaldispersion=gd3bj scf=xqc

CID_82289715_JID_7108_neutraal

0 1
C          1.06189       -0.05290        0.05807
C          0.05439       -0.06214        1.18717
C         -1.37464       -0.41334        0.78391
C         -0.57346       -1.39290        1.58059
C          0.18274        1.04331        2.20498
O         -0.19171        2.17154        1.90474
C          0.73937        0.77185        3.55928
C          0.44723        1.67692        4.58487
C          0.91333        1.44509        5.88129
C          1.66818        0.30791        6.17814
C          2.00062       -0.56810        5.14867
C          1.53596       -0.34191        3.84270
O          2.06202        0.21901        7.47688
C          2.21935       -1.02817        8.17684
C          1.15486       -2.08623        7.85123
C          3.64420       -1.56726        8.00993
C          2.03921       -0.64168        9.65984
H          0.98499        0.87942       -0.51083
H          0.91040       -0.88731       -0.63504
H          2.07755       -0.12912        0.45932
H         -2.18801        0.10739        1.27984
H         -1.58022       -0.64195       -0.25569
H         -0.23339       -2.29412        1.08210
H         -0.88114       -1.55876        2.60755
H         -0.15164        2.56315        4.38346
H          0.67567        2.15499        6.67063
H          2.63079       -1.43159        5.32154
H          1.81686       -1.04267        3.06156
H          1.29068       -2.52051        6.85733
H          1.19160       -2.91711        8.56507
H          0.14894       -1.65256        7.87904
H          4.38239       -0.78641        8.22637
H          3.83088       -2.41447        8.67903
H          3.84279       -1.90625        6.99108
H          2.75738        0.13314        9.95346
H          1.04212       -0.21909        9.83253
H          2.16885       -1.50161       10.32588

--Link1--
%chk=JID_7108.chk
%mem=8GB
%nprocshared=4
# B3LYP/6-311++G(d,p) empiricaldispersion=gd3bj scf=xqc pop=npa geom=check

CID_82289715_JID_7108_Energie_neutraal

0 1

--Link1--
%chk=JID_7108.chk
%mem=8GB
%nprocshared=4
# B3LYP/6-311++G(d,p) empiricaldispersion=gd3bj scf=xqc pop=npa geom=check

CID_82289715_JID_7108_Energie_kation

1 2

--Link1--
%chk=JID_7108.chk
%mem=8GB
%nprocshared=4
# B3LYP/6-311++G(d,p) empiricaldispersion=gd3bj scf=xqc pop=npa geom=check

CID_82289715_JID_7108_Energie_anion

-1 2
