%chk=JID_3594.chk
%mem=8GB
%nprocshared=4
# opt freq B3LYP/6-31G(d) empiricaldispersion=gd3bj scf=xqc

CID_114794734_JID_3594_neutraal

0 1
C          1.09307        0.00762        0.03578
C          0.69027        1.21811        0.79038
C         -0.18608        1.35684        1.84793
N         -0.21139        2.64554        2.30568
C          0.64103        3.29402        1.54872
N          1.16690        2.49199        0.57137
C          2.13488        2.92163       -0.41907
C          1.56292        3.76974       -1.56548
C          1.15616        5.19177       -1.16526
C          0.79829        6.07978       -2.35129
C          0.94912        7.49263       -1.80122
C          1.78930        7.34100       -0.54008
N          2.24984        5.94587       -0.53132
H          0.84404        0.11293       -1.02483
H          0.57703       -0.87988        0.41627
H          2.16966       -0.16655        0.12829
H         -0.78259        0.58597        2.31853
H          0.90848        4.33835        1.65740
H          2.93641        3.44461        0.11409
H          2.58799        2.02188       -0.84917
H          2.32657        3.82388       -2.35273
H          0.69670        3.26094       -2.00737
H          0.29816        5.15191       -0.48371
H          1.49691        5.93518       -3.18500
H         -0.21384        5.89366       -2.72359
H          1.43249        8.14510       -2.53595
H         -0.02872        7.92248       -1.55739
H          2.63500        8.03565       -0.52331
H          1.18283        7.53398        0.35220
H          3.08002        5.88931       -1.12441

--Link1--
%chk=JID_3594.chk
%mem=8GB
%nprocshared=4
# B3LYP/6-311++G(d,p) empiricaldispersion=gd3bj scf=xqc pop=npa geom=check

CID_114794734_JID_3594_Energie_neutraal

0 1

--Link1--
%chk=JID_3594.chk
%mem=8GB
%nprocshared=4
# B3LYP/6-311++G(d,p) empiricaldispersion=gd3bj scf=xqc pop=npa geom=check

CID_114794734_JID_3594_Energie_kation

1 2

--Link1--
%chk=JID_3594.chk
%mem=8GB
%nprocshared=4
# B3LYP/6-311++G(d,p) empiricaldispersion=gd3bj scf=xqc pop=npa geom=check

CID_114794734_JID_3594_Energie_anion

-1 2
