%chk=JID_7153.chk
%mem=8GB
%nprocshared=4
# opt freq B3LYP/6-31G(d) empiricaldispersion=gd3bj scf=xqc

CID_61666840_JID_7153_neutraal

0 1
C          1.07898       -0.06083       -0.00785
C          0.37279        1.07488        0.74352
C          0.86036        2.41364        0.18043
C         -1.16412        0.88480        0.69256
C         -1.57411       -0.19777        1.70417
O         -1.75437        0.00641        2.89960
O         -1.68642       -1.41080        1.09197
C         -2.05182       -2.47244        1.97524
N         -1.90593        2.08636        1.08068
C         -2.37505        3.15326        0.42906
O         -2.76783        4.11211        1.09495
N         -2.43762        3.24600       -0.90044
C         -2.29554        2.30298       -2.00816
C         -3.48473        1.35205       -2.07255
C         -2.20085        3.05443       -3.34146
O         -2.01158        2.54896       -4.43707
O         -2.38598        4.38896       -3.23277
H          0.77788       -0.08641       -1.06073
H          0.85302       -1.03497        0.43583
H          2.16653        0.06587        0.02844
H          0.70070        1.03222        1.79122
H          0.57002        2.54290       -0.86584
H          0.47085        3.25697        0.75865
H          1.95345        2.47528        0.22930
H         -1.49455        0.55985       -0.29108
H         -1.29343       -2.60157        2.75392
H         -3.03462       -2.28179        2.41753
H         -2.10769       -3.39505        1.39103
H         -1.96763        2.23125        2.08554
H         -2.78843        4.15785       -1.18151
H         -1.35151        1.76913       -1.89397
H         -4.41330        1.89798       -2.27637
H         -3.35297        0.61642       -2.87329
H         -3.62481        0.80939       -1.13284
H         -2.30185        4.72061       -4.15211

--Link1--
%chk=JID_7153.chk
%mem=8GB
%nprocshared=4
# B3LYP/6-311++G(d,p) empiricaldispersion=gd3bj scf=xqc pop=npa geom=check

CID_61666840_JID_7153_Energie_neutraal

0 1

--Link1--
%chk=JID_7153.chk
%mem=8GB
%nprocshared=4
# B3LYP/6-311++G(d,p) empiricaldispersion=gd3bj scf=xqc pop=npa geom=check

CID_61666840_JID_7153_Energie_kation

1 2

--Link1--
%chk=JID_7153.chk
%mem=8GB
%nprocshared=4
# B3LYP/6-311++G(d,p) empiricaldispersion=gd3bj scf=xqc pop=npa geom=check

CID_61666840_JID_7153_Energie_anion

-1 2
