%chk=JID_5796.chk
%mem=8GB
%nprocshared=4
# opt freq B3LYP/6-31G(d) empiricaldispersion=gd3bj scf=xqc

CID_145171479_JID_5796_neutraal

0 1
C         -2.54900       -0.97100        0.01300
C         -1.17873       -0.36936       -0.06034
C         -1.00430        0.99037        0.09103
C          0.28938        1.47293        0.01428
N          1.32506        0.65005       -0.22085
C          1.06388       -0.64946       -0.36633
N         -0.14586       -1.20305       -0.27639
N          2.13555       -1.49501       -0.57201
N          0.47904        2.86133        0.14686
C          1.65219        3.60562        0.00774
C          2.64247        3.29652       -0.91930
C          3.76734        4.11313       -1.02004
C          3.87182        5.22674       -0.20031
C          2.83805        5.47693        0.68320
N          1.73689        4.70013        0.79784
H         -2.50924       -2.05305       -0.14891
H         -2.98909       -0.78973        0.99852
H         -3.19561       -0.53584       -0.75539
H         -1.84558        1.65176        0.25371
H          1.89401       -2.42002       -0.24517
H          2.96901       -1.07224       -0.18789
H         -0.03391        3.26187        0.92312
H          2.54507        2.43259       -1.56819
H          4.54855        3.87803       -1.73671
H          4.73182        5.88419       -0.25174
H          2.86525        6.33836        1.34426

--Link1--
%chk=JID_5796.chk
%mem=8GB
%nprocshared=4
# B3LYP/6-311++G(d,p) empiricaldispersion=gd3bj scf=xqc pop=npa geom=check

CID_145171479_JID_5796_Energie_neutraal

0 1

--Link1--
%chk=JID_5796.chk
%mem=8GB
%nprocshared=4
# B3LYP/6-311++G(d,p) empiricaldispersion=gd3bj scf=xqc pop=npa geom=check

CID_145171479_JID_5796_Energie_kation

1 2

--Link1--
%chk=JID_5796.chk
%mem=8GB
%nprocshared=4
# B3LYP/6-311++G(d,p) empiricaldispersion=gd3bj scf=xqc pop=npa geom=check

CID_145171479_JID_5796_Energie_anion

-1 2
