%chk=JID_7971.chk
%mem=8GB
%nprocshared=4
# opt freq B3LYP/6-31G(d) empiricaldispersion=gd3bj scf=xqc

CID_61435511_JID_7971_neutraal

0 1
C          1.01694        0.04141        0.08943
C          1.26756       -0.44183       -1.33596
N          1.59553       -1.87414       -1.46307
C          0.60550       -2.82389       -0.89824
C          0.24309       -3.96946       -1.86133
C         -1.19562       -4.44303       -1.70258
C         -1.12296       -5.83840       -2.26932
C          0.22419       -6.31028       -1.76840
O          1.04536       -5.14452       -1.61036
C          2.93814       -2.19095       -1.19986
N          3.68597       -1.36700       -0.43423
C          4.97534       -1.68361       -0.18469
C          5.59951       -2.80251       -0.69022
C          4.84789       -3.63300       -1.50889
C          3.51299       -3.32169       -1.76953
C          5.44093       -4.79699       -2.09500
N          5.93876       -5.73303       -2.56710
H          0.17181       -0.47658        0.55228
H          0.77937        1.11041        0.07927
H          1.88379       -0.09764        0.73986
H          0.35895       -0.25670       -1.92306
H          2.04551        0.17269       -1.80785
H          0.95171       -3.21373        0.06786
H         -0.32024       -2.26837       -0.70466
H          0.41825       -3.67084       -2.90284
H         -1.47677       -4.49166       -0.64334
H         -1.91341       -3.80205       -2.22183
H         -1.94543       -6.48593       -1.95449
H         -1.12128       -5.79639       -3.36495
H          0.13792       -6.79051       -0.78814
H          0.70629       -7.00944       -2.45752
H          5.50542       -0.98362        0.45478
H          6.63908       -3.00847       -0.46064
H          2.93875       -3.94620       -2.44396

--Link1--
%chk=JID_7971.chk
%mem=8GB
%nprocshared=4
# B3LYP/6-311++G(d,p) empiricaldispersion=gd3bj scf=xqc pop=npa geom=check

CID_61435511_JID_7971_Energie_neutraal

0 1

--Link1--
%chk=JID_7971.chk
%mem=8GB
%nprocshared=4
# B3LYP/6-311++G(d,p) empiricaldispersion=gd3bj scf=xqc pop=npa geom=check

CID_61435511_JID_7971_Energie_kation

1 2

--Link1--
%chk=JID_7971.chk
%mem=8GB
%nprocshared=4
# B3LYP/6-311++G(d,p) empiricaldispersion=gd3bj scf=xqc pop=npa geom=check

CID_61435511_JID_7971_Energie_anion

-1 2
