%chk=JID_8740.chk
%mem=8GB
%nprocshared=4
# opt freq B3LYP/6-31G(d) empiricaldispersion=gd3bj scf=xqc

CID_62118986_JID_8740_neutraal

0 1
C          1.08112       -0.03714        0.04518
C          0.47742       -1.40697        0.31302
C          0.90912       -2.02016        1.64986
C          0.51326       -1.21178        2.90622
C         -0.99879       -0.95011        3.06695
C         -1.88272       -2.19000        3.07383
N          1.09545       -1.76624        4.13897
C          1.15560       -3.10022        4.47061
C          1.79639       -3.22565        5.68418
C          2.13511       -1.92414        6.11379
C          1.67631       -1.03929        5.15429
C          1.80715        0.44816        5.21923
C          2.03798        0.91451        6.68643
C          3.09898        0.02955        7.39803
C          2.81477       -1.46846        7.31632
O          3.20638       -2.24454        8.18481
C          0.71045        0.88189        7.47375
C          2.54180        2.36993        6.66596
H          0.69301        0.71553        0.73747
H          0.83284        0.28991       -0.96971
H          2.17161       -0.06311        0.13512
H         -0.61446       -1.34409        0.25463
H          0.79034       -2.08525       -0.49025
H          0.49399       -3.03353        1.70186
H          2.00030       -2.14645        1.63794
H          0.99240       -0.23096        2.80029
H         -1.17691       -0.39605        3.99748
H         -1.33625       -0.29270        2.25679
H         -1.64443       -2.85070        3.91149
H         -2.93237       -1.89526        3.17734
H         -1.79179       -2.75762        2.14367
H          0.74132       -3.86263        3.82471
H          1.99905       -4.15237        6.20633
H          0.91778        0.94020        4.80898
H          2.66075        0.73999        4.59388
H          4.08691        0.18825        6.94702
H          3.17029        0.30473        8.45737
H          0.85478        1.23558        8.50101
H         -0.03994        1.52848        7.00459
H          0.28586       -0.12544        7.53033
H          3.49116        2.45342        6.12510
H          1.81949        3.03145        6.17449
H          2.70435        2.74708        7.68191

--Link1--
%chk=JID_8740.chk
%mem=8GB
%nprocshared=4
# B3LYP/6-311++G(d,p) empiricaldispersion=gd3bj scf=xqc pop=npa geom=check

CID_62118986_JID_8740_Energie_neutraal

0 1

--Link1--
%chk=JID_8740.chk
%mem=8GB
%nprocshared=4
# B3LYP/6-311++G(d,p) empiricaldispersion=gd3bj scf=xqc pop=npa geom=check

CID_62118986_JID_8740_Energie_kation

1 2

--Link1--
%chk=JID_8740.chk
%mem=8GB
%nprocshared=4
# B3LYP/6-311++G(d,p) empiricaldispersion=gd3bj scf=xqc pop=npa geom=check

CID_62118986_JID_8740_Energie_anion

-1 2
