%chk=JID_5949.chk
%mem=8GB
%nprocshared=4
# opt freq B3LYP/6-31G(d) empiricaldispersion=gd3bj scf=xqc

CID_144390269_JID_5949_neutraal

0 1
C         -1.74700        0.00400       -0.45100
C         -0.33087       -0.46576       -0.19467
C          0.67875        0.62058        0.23914
C          1.74558       -0.10401       -0.62486
C          0.56401       -0.69929       -1.43490
O          2.58102       -1.09237        0.02417
C          3.35175       -0.67760        1.08543
C          4.02951        0.54566        1.06347
C          4.78752        0.94571        2.16285
C          4.87697        0.12220        3.28015
C          4.22127       -1.11045        3.29411
C          3.46021       -1.53935        2.19154
C          2.74898       -2.88528        2.21770
C          3.70383       -4.04019        2.53879
C          1.57265       -2.86260        3.19645
H         -2.22960        0.30131        0.48550
H         -1.77243        0.86134       -1.13163
H         -2.34362       -0.79842       -0.89646
H         -0.32233       -1.32912        0.48592
H          0.45057        1.63186       -0.11860
H          0.86163        0.66869        1.31597
H          2.35432        0.56882       -1.24075
H          0.67230       -1.74515       -1.73642
H          0.29587       -0.10527       -2.31647
H          3.98408        1.19516        0.19601
H          5.30804        1.89953        2.14609
H          5.46205        0.43452        4.14135
H          4.30794       -1.73478        4.18010
H          2.33742       -3.10196        1.22472
H          4.09831       -3.98061        3.55859
H          3.18730       -5.00156        2.44276
H          4.55502       -4.04709        1.84885
H          0.86974       -2.06048        2.94501
H          1.02478       -3.81056        3.16279
H          1.90381       -2.70484        4.22874

--Link1--
%chk=JID_5949.chk
%mem=8GB
%nprocshared=4
# B3LYP/6-311++G(d,p) empiricaldispersion=gd3bj scf=xqc pop=npa geom=check

CID_144390269_JID_5949_Energie_neutraal

0 1

--Link1--
%chk=JID_5949.chk
%mem=8GB
%nprocshared=4
# B3LYP/6-311++G(d,p) empiricaldispersion=gd3bj scf=xqc pop=npa geom=check

CID_144390269_JID_5949_Energie_kation

1 2

--Link1--
%chk=JID_5949.chk
%mem=8GB
%nprocshared=4
# B3LYP/6-311++G(d,p) empiricaldispersion=gd3bj scf=xqc pop=npa geom=check

CID_144390269_JID_5949_Energie_anion

-1 2
