%chk=JID_5501.chk
%mem=8GB
%nprocshared=4
# opt freq B3LYP/6-31G(d) empiricaldispersion=gd3bj scf=xqc

CID_80447840_JID_5501_neutraal

0 1
C          0.99372        0.09413        0.03315
C          0.54086        1.51195       -0.28270
C          1.46959        2.34730       -1.21780
C          2.79174        2.72464       -0.53450
C          2.43596        3.88805        0.37915
N          1.30009        4.54602       -0.25829
C          0.84203        3.75328       -1.39940
C          1.41690        5.98734       -0.47494
C          2.69311        6.59644       -1.13140
C          2.99512        6.17825       -2.58783
C          1.93419        6.65019       -3.58709
C          4.36465        6.71047       -3.03075
O          2.60983        8.02896       -1.05347
C          1.66021        1.66631       -2.59905
C          2.82092        0.68289       -2.71297
H          0.93027       -0.54919       -0.84850
H          0.33424       -0.34238        0.79123
H          2.01238        0.06481        0.42749
H         -0.45656        1.44802       -0.73810
H          0.39442        2.03439        0.67061
H          3.51890        3.07593       -1.27751
H          3.25303        1.90196        0.01828
H          2.11604        3.51266        1.35815
H          3.30597        4.52428        0.55977
H          1.15977        4.19271       -2.34549
H         -0.25299        3.71496       -1.42336
H          0.52657        6.34871       -1.00616
H          1.32399        6.45991        0.51337
H          3.55839        6.33252       -0.51518
H          3.06152        5.08711       -2.63651
H          1.90863        7.74217       -3.66425
H          2.14924        6.25494       -4.58610
H          0.93347        6.30831       -3.30963
H          5.15346        6.35664       -2.35840
H          4.60741        6.35741       -4.03908
H          4.39098        7.80491       -3.04209
H          1.77539        8.30454       -1.46637
H          0.73031        1.16151       -2.88917
H          1.83100        2.42963       -3.36910
H          2.78275       -0.10836       -1.96357
H          2.80427        0.20689       -3.69916
H          3.78421        1.19347       -2.61868

--Link1--
%chk=JID_5501.chk
%mem=8GB
%nprocshared=4
# B3LYP/6-311++G(d,p) empiricaldispersion=gd3bj scf=xqc pop=npa geom=check

CID_80447840_JID_5501_Energie_neutraal

0 1

--Link1--
%chk=JID_5501.chk
%mem=8GB
%nprocshared=4
# B3LYP/6-311++G(d,p) empiricaldispersion=gd3bj scf=xqc pop=npa geom=check

CID_80447840_JID_5501_Energie_kation

1 2

--Link1--
%chk=JID_5501.chk
%mem=8GB
%nprocshared=4
# B3LYP/6-311++G(d,p) empiricaldispersion=gd3bj scf=xqc pop=npa geom=check

CID_80447840_JID_5501_Energie_anion

-1 2
