%chk=JID_8553.chk
%mem=8GB
%nprocshared=4
# opt freq B3LYP/6-31G(d) empiricaldispersion=gd3bj scf=xqc

CID_113435071_JID_8553_neutraal

0 1
C          0.93622        0.02024        0.07431
C          0.97472       -0.68117        1.42290
C          0.68045        0.25655        2.55762
C         -0.55066        0.69644        3.00330
C         -0.44459        1.51913        4.16294
C          0.86708        1.72045        4.54037
S          1.95349        0.87352        3.52587
C          1.37358        2.39327        5.71126
O          1.54375        1.80938        6.78235
N          1.67965        3.73023        5.67295
C          1.34766        4.83642        4.73071
C          1.73527        4.51954        3.27226
C          1.72966        5.75795        2.38040
O          2.55213        6.78788        2.91493
C          2.12659        7.21350        4.20536
C          2.19057        6.05702        5.18963
C         -0.16967        5.15932        4.83829
O         -0.50642        5.54291        6.17133
H         -0.04696        0.46451       -0.11474
H          1.14683       -0.69192       -0.72983
H          1.68155        0.82129        0.02360
H          0.23378       -1.49020        1.42842
H          1.95338       -1.15796        1.55557
H         -1.48836        0.40528        2.54457
H         -1.28988        1.91785        4.71027
H          1.87943        4.03728        6.61865
H          2.74703        4.09340        3.26149
H          1.06254        3.78094        2.82871
H          2.12569        5.49848        1.39299
H          0.71622        6.14434        2.22577
H          1.12378        7.64917        4.14037
H          2.80373        8.01055        4.52975
H          1.89211        6.39924        6.18769
H          3.24003        5.74066        5.27516
H         -0.46510        5.97829        4.17697
H         -0.77711        4.28942        4.57797
H         -1.47523        5.62336        6.21494

--Link1--
%chk=JID_8553.chk
%mem=8GB
%nprocshared=4
# B3LYP/6-311++G(d,p) empiricaldispersion=gd3bj scf=xqc pop=npa geom=check

CID_113435071_JID_8553_Energie_neutraal

0 1

--Link1--
%chk=JID_8553.chk
%mem=8GB
%nprocshared=4
# B3LYP/6-311++G(d,p) empiricaldispersion=gd3bj scf=xqc pop=npa geom=check

CID_113435071_JID_8553_Energie_kation

1 2

--Link1--
%chk=JID_8553.chk
%mem=8GB
%nprocshared=4
# B3LYP/6-311++G(d,p) empiricaldispersion=gd3bj scf=xqc pop=npa geom=check

CID_113435071_JID_8553_Energie_anion

-1 2
