%chk=JID_5311.chk
%mem=8GB
%nprocshared=4
# opt freq B3LYP/6-31G(d) empiricaldispersion=gd3bj scf=xqc

CID_148736289_JID_5311_neutraal

0 1
C          1.06264       -0.05908        0.05085
C          0.45514        1.12620       -0.08881
C         -0.52465        1.64460        0.91623
N         -0.98182        2.85436        0.96862
C         -0.56928        3.85379       -0.00121
C          0.76046        4.59706        0.26245
C          0.53254        6.00658       -0.63190
C         -0.90754        5.84342       -1.17603
C         -1.35917        5.15768        0.10385
C         -2.06890        5.75881        1.28240
C         -0.59111        6.02390        1.26104
C          0.17054        7.05586        0.44818
C          0.55420        5.13072        1.70170
O          0.20639        4.25021        2.74037
N         -1.02671        0.82292        1.88832
H          0.89763       -0.70666        0.90488
H          1.78016       -0.39642       -0.69069
H          0.69424        1.74678       -0.94209
H         -0.63433        3.44738       -1.01709
H          1.67957        4.04294        0.07356
H          1.30965        6.27211       -1.34731
H         -0.95307        5.20621       -2.06512
H         -1.44257        6.77406       -1.39234
H         -2.73668        6.59467        1.10197
H         -2.45164        5.08525        2.04311
H          1.05309        7.45714        0.95706
H         -0.44405        7.89608        0.10858
H          1.43060        5.69308        2.04204
H         -0.47680        3.65105        2.37409
H         -1.19147       -0.13642        1.61205
H         -1.83131        1.23798        2.34699

--Link1--
%chk=JID_5311.chk
%mem=8GB
%nprocshared=4
# B3LYP/6-311++G(d,p) empiricaldispersion=gd3bj scf=xqc pop=npa geom=check

CID_148736289_JID_5311_Energie_neutraal

0 1

--Link1--
%chk=JID_5311.chk
%mem=8GB
%nprocshared=4
# B3LYP/6-311++G(d,p) empiricaldispersion=gd3bj scf=xqc pop=npa geom=check

CID_148736289_JID_5311_Energie_kation

1 2

--Link1--
%chk=JID_5311.chk
%mem=8GB
%nprocshared=4
# B3LYP/6-311++G(d,p) empiricaldispersion=gd3bj scf=xqc pop=npa geom=check

CID_148736289_JID_5311_Energie_anion

-1 2
