%chk=JID_3658.chk
%mem=8GB
%nprocshared=4
# opt freq B3LYP/6-31G(d) empiricaldispersion=gd3bj scf=xqc

CID_53343107_JID_3658_neutraal

0 1
C          0.92727       -0.06861        0.00191
C          0.61073        1.27765        0.64176
C          1.40411        2.40238       -0.00963
C         -0.87820        1.62019        0.67122
O         -1.32862        2.31318        1.58964
C         -1.78910        1.13905       -0.42561
C         -1.56022        1.76529       -1.76434
O         -1.51942        1.12199       -2.80471
O         -1.48674        3.11706       -1.67306
C         -1.47015        3.86036       -2.90773
C         -0.05235        4.31932       -3.25629
C          0.73096        3.28072       -4.01234
C          1.28181        3.48497       -5.21586
H          0.71619       -0.06843       -1.07248
H          0.33685       -0.86859        0.46102
H          1.98616       -0.31697        0.13148
H          0.91770        1.21038        1.69436
H          1.22741        2.44145       -1.08726
H          1.12886        3.37632        0.40891
H          2.47846        2.25816        0.14620
H         -1.70274        0.05152       -0.50993
H         -2.82723        1.34177       -0.13690
H         -1.94630        3.30954       -3.72786
H         -2.08935        4.74561       -2.72382
H         -0.12197        5.23218       -3.86038
H          0.49632        4.57117       -2.34165
H          0.85085        2.30561       -3.54498
H          1.83355        2.69273       -5.71350
H          1.19678        4.43536       -5.73341

--Link1--
%chk=JID_3658.chk
%mem=8GB
%nprocshared=4
# B3LYP/6-311++G(d,p) empiricaldispersion=gd3bj scf=xqc pop=npa geom=check

CID_53343107_JID_3658_Energie_neutraal

0 1

--Link1--
%chk=JID_3658.chk
%mem=8GB
%nprocshared=4
# B3LYP/6-311++G(d,p) empiricaldispersion=gd3bj scf=xqc pop=npa geom=check

CID_53343107_JID_3658_Energie_kation

1 2

--Link1--
%chk=JID_3658.chk
%mem=8GB
%nprocshared=4
# B3LYP/6-311++G(d,p) empiricaldispersion=gd3bj scf=xqc pop=npa geom=check

CID_53343107_JID_3658_Energie_anion

-1 2
