%chk=JID_8316.chk
%mem=8GB
%nprocshared=4
# opt freq B3LYP/6-31G(d) empiricaldispersion=gd3bj scf=xqc

CID_113718196_JID_8316_neutraal

0 1
C          0.90755        0.03811       -0.00078
C          0.45710       -1.27828       -0.62091
C          1.10950       -2.45562        0.04237
O          0.67091       -3.06823        1.00099
O          2.30538       -2.76093       -0.48976
C          0.48714        0.17095        1.46448
N          0.77939        1.50467        1.95562
C         -0.06731        2.54760        2.20004
O          0.43167        3.62591        2.52531
C         -1.57111        2.35373        2.12056
S         -2.15404        2.22259        0.41060
C         -1.77363        3.80583       -0.18398
N         -1.86349        4.91968        0.51099
N         -1.49063        5.94576       -0.33400
C         -1.20911        5.38441       -1.49035
O         -1.36452        4.02305       -1.47297
C         -0.73809        5.99598       -2.76151
N         -1.71464        5.86575       -3.84878
H          0.48736        0.86314       -0.58756
H          1.99846        0.13454       -0.07265
H         -0.62974       -1.39939       -0.54936
H          0.69887       -1.29926       -1.68994
H          2.62209       -3.52400        0.03872
H         -0.57218       -0.06187        1.59327
H          1.06063       -0.52015        2.09067
H          1.75382        1.76313        2.06741
H         -1.84723        1.44962        2.67200
H         -2.06590        3.18996        2.62607
H         -0.52804        7.05806       -2.59906
H          0.20064        5.51864       -3.06389
H         -1.30833        6.23320       -4.70679
H         -1.89767        4.87639       -4.01327

--Link1--
%chk=JID_8316.chk
%mem=8GB
%nprocshared=4
# B3LYP/6-311++G(d,p) empiricaldispersion=gd3bj scf=xqc pop=npa geom=check

CID_113718196_JID_8316_Energie_neutraal

0 1

--Link1--
%chk=JID_8316.chk
%mem=8GB
%nprocshared=4
# B3LYP/6-311++G(d,p) empiricaldispersion=gd3bj scf=xqc pop=npa geom=check

CID_113718196_JID_8316_Energie_kation

1 2

--Link1--
%chk=JID_8316.chk
%mem=8GB
%nprocshared=4
# B3LYP/6-311++G(d,p) empiricaldispersion=gd3bj scf=xqc pop=npa geom=check

CID_113718196_JID_8316_Energie_anion

-1 2
