%chk=JID_6081.chk
%mem=8GB
%nprocshared=4
# opt freq B3LYP/6-31G(d) empiricaldispersion=gd3bj scf=xqc

CID_115886330_JID_6081_neutraal

0 1
C          1.07216       -0.03660       -0.05877
C          0.64632       -0.31890        1.37593
C          1.07485        0.76532        2.38807
C          0.62673        2.19375        1.98198
C         -0.87777        2.39197        1.85499
C          0.61811        0.41668        3.83231
C          1.06577       -0.96668        4.37514
N          2.52134       -1.03770        4.51324
C          3.08816       -2.33442        4.86806
C          3.16242       -3.36242        3.71705
C          2.91406       -4.70168        4.44255
C          1.40881       -4.82397        4.72463
C          1.19574       -3.81962        5.86506
C          2.58827       -3.19189        6.06008
C          3.46512       -4.43997        5.84661
O          1.12663        1.41588        4.72925
H          0.53406        0.81705       -0.48038
H          0.85449       -0.90398       -0.69062
H          2.14668        0.16306       -0.11778
H         -0.43936       -0.46546        1.41015
H          1.09916       -1.27591        1.65675
H          2.17268        0.80623        2.38434
H          1.01199        2.91891        2.70919
H          1.09710        2.46616        1.02977
H         -1.38859        2.22577        2.80733
H         -1.09070        3.42018        1.54394
H         -1.31262        1.72477        1.10574
H         -0.47470        0.45818        3.89343
H          0.63248       -1.05865        5.37669
H          0.66983       -1.76693        3.74471
H          2.96059       -0.73277        3.64375
H          4.13166       -2.08202        5.11141
H          2.42665       -3.18865        2.92511
H          4.15831       -3.34132        3.25949
H          3.33097       -5.56541        3.92116
H          0.79522       -4.58993        3.84890
H          1.15266       -5.83535        5.05977
H          0.39227       -3.11853        5.64865
H          0.90179       -4.35974        6.77405
H          2.71974       -2.70753        7.03034
H          3.24915       -5.24793        6.55429
H          4.53995       -4.22971        5.85616
H          1.97650        1.05734        5.05756

--Link1--
%chk=JID_6081.chk
%mem=8GB
%nprocshared=4
# B3LYP/6-311++G(d,p) empiricaldispersion=gd3bj scf=xqc pop=npa geom=check

CID_115886330_JID_6081_Energie_neutraal

0 1

--Link1--
%chk=JID_6081.chk
%mem=8GB
%nprocshared=4
# B3LYP/6-311++G(d,p) empiricaldispersion=gd3bj scf=xqc pop=npa geom=check

CID_115886330_JID_6081_Energie_kation

1 2

--Link1--
%chk=JID_6081.chk
%mem=8GB
%nprocshared=4
# B3LYP/6-311++G(d,p) empiricaldispersion=gd3bj scf=xqc pop=npa geom=check

CID_115886330_JID_6081_Energie_anion

-1 2
