%chk=JID_7618.chk
%mem=8GB
%nprocshared=4
# opt freq B3LYP/6-31G(d) empiricaldispersion=gd3bj scf=xqc

CID_114954015_JID_7618_neutraal

0 1
C         -2.33600        1.19800        0.00600
C         -1.18207        0.25406       -0.11211
N         -1.43802       -0.99394       -0.52492
C         -0.38261       -1.79932       -0.62182
C          0.90562       -1.39094       -0.34229
C          1.10299       -0.08500        0.06195
N          0.04083        0.73383        0.17540
N          2.34918        0.43070        0.39868
C          2.43017        1.89318        0.43892
C          3.61426       -0.29749        0.20211
C          4.10101       -0.91350        1.53363
C          5.54698       -1.40389        1.46144
C          5.69275       -2.35622        2.64919
C          4.27822       -2.80692        3.01270
C          3.35719       -2.17540        1.97073
O          4.00304        0.06350        2.57909
N         -0.63275       -3.10102       -1.06061
H         -2.16828        1.91006        0.81986
H         -2.45567        1.75251       -0.92922
H         -3.26205        0.65323        0.21379
H          1.71239       -2.09506       -0.46506
H          1.71036        2.31790        1.14797
H          3.41969        2.22405        0.77450
H          2.25734        2.32037       -0.55536
H          3.55820       -1.04781       -0.59383
H          4.37467        0.41743       -0.14056
H          5.72559       -1.95461        0.52994
H          6.27452       -0.58827        1.52700
H          6.15164       -1.84289        3.50195
H          6.33519       -3.20548        2.39483
H          4.02056       -2.44771        4.01601
H          4.18518       -3.89749        3.02171
H          2.37351       -1.96723        2.40314
H          3.23710       -2.87122        1.13266
H          3.09326        0.41523        2.49888
H         -1.64094       -3.18769       -1.16909
H         -0.26855       -3.78974       -0.41247

--Link1--
%chk=JID_7618.chk
%mem=8GB
%nprocshared=4
# B3LYP/6-311++G(d,p) empiricaldispersion=gd3bj scf=xqc pop=npa geom=check

CID_114954015_JID_7618_Energie_neutraal

0 1

--Link1--
%chk=JID_7618.chk
%mem=8GB
%nprocshared=4
# B3LYP/6-311++G(d,p) empiricaldispersion=gd3bj scf=xqc pop=npa geom=check

CID_114954015_JID_7618_Energie_kation

1 2

--Link1--
%chk=JID_7618.chk
%mem=8GB
%nprocshared=4
# B3LYP/6-311++G(d,p) empiricaldispersion=gd3bj scf=xqc pop=npa geom=check

CID_114954015_JID_7618_Energie_anion

-1 2
