%chk=JID_6228.chk
%mem=8GB
%nprocshared=4
# opt freq B3LYP/6-31G(d) empiricaldispersion=gd3bj scf=xqc

CID_115774314_JID_6228_neutraal

0 1
C          1.08257        0.01273        0.05496
C          0.54196        1.24279       -0.66871
C          1.25026        1.44224       -2.00359
S         -1.25386        1.17625       -0.85379
O         -1.82393        1.07656        0.47392
O         -1.65959        2.23966       -1.74925
N         -1.47040       -0.29614       -1.64478
C         -2.18149       -1.37106       -0.92644
C         -1.75653       -2.73299       -1.48973
C         -1.64870       -2.77553       -3.00360
C         -1.69235       -1.60938       -3.68566
C         -1.79978       -0.23695       -3.07844
C         -1.40954       -4.13450       -3.69382
C         -2.27794       -4.28581       -4.96269
C          0.07733       -4.22602       -4.09293
C         -1.73023       -5.34308       -2.78660
H          0.94944       -0.89795       -0.53776
H          0.57628       -0.13639        1.01405
H          2.15318        0.12491        0.25647
H          0.72357        2.12560       -0.04327
H          1.11736        0.57931       -2.66328
H          0.87290        2.32649       -2.52677
H          2.32577        1.58159       -1.85060
H         -1.94761       -1.36341        0.14282
H         -3.26377       -1.23026       -1.03742
H         -0.77910       -3.00336       -1.07094
H         -2.48549       -3.46783       -1.13232
H         -1.59316       -1.60536       -4.76776
H         -2.81173        0.15269       -3.23071
H         -1.08822        0.41485       -3.59563
H         -2.00982       -3.56333       -5.74065
H         -2.15810       -5.28179       -5.40558
H         -3.34108       -4.15337       -4.73009
H          0.73062       -4.13492       -3.21711
H          0.29973       -5.18542       -4.57432
H          0.35646       -3.43520       -4.79896
H         -1.10529       -5.35402       -1.88633
H         -2.78120       -5.34284       -2.47601
H         -1.54637       -6.28915       -3.30996

--Link1--
%chk=JID_6228.chk
%mem=8GB
%nprocshared=4
# B3LYP/6-311++G(d,p) empiricaldispersion=gd3bj scf=xqc pop=npa geom=check

CID_115774314_JID_6228_Energie_neutraal

0 1

--Link1--
%chk=JID_6228.chk
%mem=8GB
%nprocshared=4
# B3LYP/6-311++G(d,p) empiricaldispersion=gd3bj scf=xqc pop=npa geom=check

CID_115774314_JID_6228_Energie_kation

1 2

--Link1--
%chk=JID_6228.chk
%mem=8GB
%nprocshared=4
# B3LYP/6-311++G(d,p) empiricaldispersion=gd3bj scf=xqc pop=npa geom=check

CID_115774314_JID_6228_Energie_anion

-1 2
