%chk=JID_5347.chk
%mem=8GB
%nprocshared=4
# opt freq B3LYP/6-31G(d) empiricaldispersion=gd3bj scf=xqc

CID_135275527_JID_5347_neutraal

0 1
C          0.97080        0.08417       -0.04541
C         -0.14346        0.99729       -0.51608
C         -0.74693        0.56113       -1.84925
C         -1.28037       -0.87378       -1.82513
C         -2.28139       -1.14534       -2.94198
C         -1.76591       -0.95836       -4.37552
N         -0.99247       -2.02320       -5.00378
C          0.45848       -2.16989       -4.73721
C          0.60966       -3.48788       -5.54252
N         -0.56260       -4.28965       -5.13770
N         -1.57331       -3.31855       -4.82922
C          1.93377       -4.18470       -5.27499
N          3.03223       -4.76276       -5.05304
C          1.24942       -1.01087       -5.32156
N          1.90558       -0.04936       -5.80633
H          0.59816       -0.91323        0.20655
H          1.43819        0.49614        0.85494
H          1.74683       -0.01893       -0.81064
H         -0.92653        1.03710        0.25013
H          0.24749        2.01600       -0.62273
H         -1.55624        1.25829       -2.09823
H          0.01029        0.65848       -2.63621
H         -0.45375       -1.58882       -1.87503
H         -1.79189       -1.05312       -0.87096
H         -2.70151       -2.14904       -2.80851
H         -3.13056       -0.46175       -2.80471
H         -2.66008       -0.83264       -5.00291
H         -1.24018       -0.00260       -4.47592
H          0.68551       -2.30515       -3.67380
H          0.55531       -3.28872       -6.62415
H         -0.83065       -4.91514       -5.90016
H         -2.43661       -3.43534       -5.37878

--Link1--
%chk=JID_5347.chk
%mem=8GB
%nprocshared=4
# B3LYP/6-311++G(d,p) empiricaldispersion=gd3bj scf=xqc pop=npa geom=check

CID_135275527_JID_5347_Energie_neutraal

0 1

--Link1--
%chk=JID_5347.chk
%mem=8GB
%nprocshared=4
# B3LYP/6-311++G(d,p) empiricaldispersion=gd3bj scf=xqc pop=npa geom=check

CID_135275527_JID_5347_Energie_kation

1 2

--Link1--
%chk=JID_5347.chk
%mem=8GB
%nprocshared=4
# B3LYP/6-311++G(d,p) empiricaldispersion=gd3bj scf=xqc pop=npa geom=check

CID_135275527_JID_5347_Energie_anion

-1 2
