%chk=JID_8338.chk
%mem=8GB
%nprocshared=4
# opt freq B3LYP/6-31G(d) empiricaldispersion=gd3bj scf=xqc

CID_65621553_JID_8338_neutraal

0 1
C          0.94928       -0.04370       -0.07428
C          0.33085        0.94150       -1.05388
C          1.02088        1.00270       -2.42547
C          0.61372       -0.02702       -3.52998
C         -0.92172        0.05140       -3.75010
C          1.25992        0.36604       -4.90248
C          2.73035        0.63987       -4.88825
N          3.30206        1.74943       -4.45719
C          4.62820        1.53830       -4.68435
N          4.92858        0.36987       -5.24865
N          3.70680       -0.18758       -5.38463
C          3.58423       -1.48113       -6.01943
C          3.75430       -1.40363       -7.52674
C          0.92771       -1.50658       -3.15829
N          2.34353       -1.81128       -2.95662
C          2.57009       -3.02184       -2.16050
C          1.99263       -4.32176       -2.73004
C          2.55122       -4.68961       -4.09518
H          0.69968       -1.07673       -0.31771
H          0.56555        0.14669        0.93381
H          2.03855        0.05623       -0.04079
H         -0.74347        0.75951       -1.14217
H          0.42704        1.93779       -0.60186
H          0.80963        2.00381       -2.82891
H          2.10320        0.98018       -2.25741
H         -1.24548        1.08351       -3.92567
H         -1.22514       -0.54311       -4.62005
H         -1.47946       -0.33541       -2.89118
H          1.01330       -0.38748       -5.65977
H          0.78247        1.29043       -5.25908
H          5.39620        2.25860       -4.43521
H          4.34247       -2.13681       -5.57723
H          2.60437       -1.89870       -5.78190
H          4.74377       -1.01941       -7.79603
H          3.64260       -2.39687       -7.97241
H          3.00528       -0.74104       -7.97318
H          0.34522       -1.77743       -2.27194
H          0.55819       -2.15146       -3.96614
H          2.80165       -1.03226       -2.47859
H          3.65423       -3.14455       -2.04929
H          2.17719       -2.87206       -1.14777
H          2.22689       -5.13355       -2.03043
H          0.89935       -4.26881       -2.78388
H          3.64551       -4.70496       -4.08401
H          2.20114       -5.68465       -4.38815
H          2.22015       -3.98574       -4.86233

--Link1--
%chk=JID_8338.chk
%mem=8GB
%nprocshared=4
# B3LYP/6-311++G(d,p) empiricaldispersion=gd3bj scf=xqc pop=npa geom=check

CID_65621553_JID_8338_Energie_neutraal

0 1

--Link1--
%chk=JID_8338.chk
%mem=8GB
%nprocshared=4
# B3LYP/6-311++G(d,p) empiricaldispersion=gd3bj scf=xqc pop=npa geom=check

CID_65621553_JID_8338_Energie_kation

1 2

--Link1--
%chk=JID_8338.chk
%mem=8GB
%nprocshared=4
# B3LYP/6-311++G(d,p) empiricaldispersion=gd3bj scf=xqc pop=npa geom=check

CID_65621553_JID_8338_Energie_anion

-1 2
