%chk=JID_3818.chk
%mem=8GB
%nprocshared=4
# opt freq B3LYP/6-31G(d) empiricaldispersion=gd3bj scf=xqc

CID_151857977_JID_3818_neutraal

0 1
C          1.30600        0.17900       -0.14100
C          0.54667       -1.14306       -0.18719
C         -0.90934       -0.71919       -0.43458
N         -0.99105        0.57995        0.22389
C          0.32770        1.08400        0.59191
N         -2.03741        0.99294        1.02000
N         -3.11489        0.36302        0.96789
N         -4.10276       -0.20723        0.94021
N         -1.11283       -0.48291       -1.85434
C         -2.50642       -0.54420       -2.29225
C         -3.15514        0.82078       -2.56136
C         -2.52643        1.65235       -3.68303
N         -2.60146        0.99507       -4.98283
H          2.26896        0.10022        0.37099
H          1.48780        0.55117       -1.15593
H          0.62318       -1.63937        0.78896
H          0.93799       -1.83289       -0.94174
H         -1.58773       -1.46423       -0.00677
H          0.44891        0.98172        1.67631
H          0.42089        2.13468        0.30456
H         -0.71935        0.43087       -2.06030
H         -2.53135       -1.13502       -3.21486
H         -3.12555       -1.10672       -1.58444
H         -4.21391        0.65339       -2.79902
H         -3.14341        1.42182       -1.64570
H         -3.06339        2.60530       -3.74993
H         -1.48348        1.89390       -3.45423
H         -2.20872        1.61125       -5.69393
H         -2.00893        0.16445       -4.97952

--Link1--
%chk=JID_3818.chk
%mem=8GB
%nprocshared=4
# B3LYP/6-311++G(d,p) empiricaldispersion=gd3bj scf=xqc pop=npa geom=check

CID_151857977_JID_3818_Energie_neutraal

0 1

--Link1--
%chk=JID_3818.chk
%mem=8GB
%nprocshared=4
# B3LYP/6-311++G(d,p) empiricaldispersion=gd3bj scf=xqc pop=npa geom=check

CID_151857977_JID_3818_Energie_kation

1 2

--Link1--
%chk=JID_3818.chk
%mem=8GB
%nprocshared=4
# B3LYP/6-311++G(d,p) empiricaldispersion=gd3bj scf=xqc pop=npa geom=check

CID_151857977_JID_3818_Energie_anion

-1 2
