%chk=JID_2917.chk
%mem=8GB
%nprocshared=4
# opt freq B3LYP/6-31G(d) empiricaldispersion=gd3bj scf=xqc

CID_153109467_JID_2917_neutraal

0 1
C          0.91963       -0.05826       -0.01210
C          0.75418        0.42989        1.41551
C          1.44987        1.74895        1.81852
C          2.91933        1.87316        1.38179
C          3.12568        2.40441       -0.03662
C          2.35808        3.69070       -0.26079
C          3.09353        4.98986        0.02474
C          2.86259        4.56656       -1.39423
C          0.85647        3.56295        0.09972
C          0.63064        3.01226        1.49500
C         -0.16630        4.59812       -0.34976
C         -0.17336        3.23660       -0.96821
H          0.60162        0.68482       -0.74343
H          0.30895       -0.95418       -0.16833
H          1.95619       -0.34044       -0.21744
H         -0.31699        0.50445        1.64056
H          1.13773       -0.36355        2.07117
H          1.46788        1.70217        2.91845
H          3.41505        2.56769        2.07391
H          3.43266        0.91126        1.49666
H          2.80990        1.67180       -0.78427
H          4.20073        2.55442       -0.19912
H          2.52108        5.82927        0.40323
H          4.10396        4.94153        0.41412
H          3.71923        4.23038       -1.96865
H          2.15141        5.12878       -1.98612
H         -0.43439        2.82842        1.68471
H          0.92751        3.79957        2.20177
H          0.15418        5.43299       -0.96003
H         -0.97814        4.85304        0.32319
H          0.16835        3.14165       -1.99278
H         -0.99415        2.57388       -0.71893

--Link1--
%chk=JID_2917.chk
%mem=8GB
%nprocshared=4
# B3LYP/6-311++G(d,p) empiricaldispersion=gd3bj scf=xqc pop=npa geom=check

CID_153109467_JID_2917_Energie_neutraal

0 1

--Link1--
%chk=JID_2917.chk
%mem=8GB
%nprocshared=4
# B3LYP/6-311++G(d,p) empiricaldispersion=gd3bj scf=xqc pop=npa geom=check

CID_153109467_JID_2917_Energie_kation

1 2

--Link1--
%chk=JID_2917.chk
%mem=8GB
%nprocshared=4
# B3LYP/6-311++G(d,p) empiricaldispersion=gd3bj scf=xqc pop=npa geom=check

CID_153109467_JID_2917_Energie_anion

-1 2
