%chk=JID_4201.chk
%mem=8GB
%nprocshared=4
# opt freq B3LYP/6-31G(d) empiricaldispersion=gd3bj scf=xqc

CID_46929849_JID_4201_neutraal

0 1
C          2.49200        0.00400       -0.01400
C          0.99282       -0.03519        0.00230
C          0.32505       -1.26847       -0.03423
C         -1.07643       -1.34665       -0.06105
C         -1.80060       -0.14319       -0.03577
C         -1.14675        1.09030       -0.00759
C          0.24531        1.14423        0.00345
C         -1.82227       -2.67498       -0.09471
C         -1.67621       -3.58649       -1.35757
N         -0.29736       -3.91196       -1.81452
C         -0.28007       -5.24677       -2.43440
N          0.09912       -2.95978       -2.84948
O         -1.76819       -3.35341        1.17351
C         -0.66687       -4.21519        1.39384
H          2.90514       -0.77489        0.63548
H          2.85912       -0.14858       -1.03363
H          2.86699        0.96562        0.35178
H          0.91767       -2.17968       -0.05907
H         -2.88880       -0.15491       -0.03402
H         -1.72553        2.00992        0.00882
H          0.74059        2.11211        0.02073
H         -2.88448       -2.39408       -0.13728
H         -2.20527       -4.51923       -1.11675
H         -2.23873       -3.13177       -2.18609
H         -0.97630       -5.32407       -3.27826
H          0.72694       -5.49010       -2.79349
H         -0.54088       -6.01427       -1.69724
H          0.03585       -1.99460       -2.50875
H          1.08918       -3.08077       -3.08034
H         -0.66584       -5.05111        0.69150
H          0.28257       -3.68043        1.36213
H         -0.77126       -4.63525        2.39886

--Link1--
%chk=JID_4201.chk
%mem=8GB
%nprocshared=4
# B3LYP/6-311++G(d,p) empiricaldispersion=gd3bj scf=xqc pop=npa geom=check

CID_46929849_JID_4201_Energie_neutraal

0 1

--Link1--
%chk=JID_4201.chk
%mem=8GB
%nprocshared=4
# B3LYP/6-311++G(d,p) empiricaldispersion=gd3bj scf=xqc pop=npa geom=check

CID_46929849_JID_4201_Energie_kation

1 2

--Link1--
%chk=JID_4201.chk
%mem=8GB
%nprocshared=4
# B3LYP/6-311++G(d,p) empiricaldispersion=gd3bj scf=xqc pop=npa geom=check

CID_46929849_JID_4201_Energie_anion

-1 2
