%chk=JID_9899.chk
%mem=8GB
%nprocshared=4
# opt freq B3LYP/6-31G(d) empiricaldispersion=gd3bj scf=xqc

CID_115476880_JID_9899_neutraal

0 1
C          1.85400        1.50000       -0.02200
C          0.62433        0.64331       -0.13830
C          0.31848       -0.32707        0.83365
C         -0.87053       -1.06308        0.71570
C         -1.75637       -0.84643       -0.34665
C         -1.41291        0.07073       -1.34070
C         -0.23942        0.81932       -1.23002
S         -3.29967       -1.77695       -0.43575
O         -3.44756       -2.47249        0.88481
C         -4.50320       -0.42133       -0.50709
C         -4.88563        0.18502        0.84323
C         -3.84607        1.11845        1.50326
N         -3.60887        2.29561        0.64318
C         -3.01190        3.47125        1.31190
C         -1.69455        3.13890        2.02873
C         -2.71587        4.49211        0.19412
C         -4.00273        4.11427        2.29583
O         -6.07635        0.97702        0.62788
C          1.23109       -0.58891        2.00070
H          1.82822        2.07861        0.90687
H          2.75497        0.87888       -0.04196
H          1.92660        2.21292       -0.85029
H         -1.11790       -1.80732        1.47203
H         -2.05180        0.22358       -2.20694
H         -0.00284        1.54732       -2.00372
H         -4.19223        0.33799       -1.23013
H         -5.40478       -0.86844       -0.94507
H         -5.16196       -0.60281        1.55228
H         -4.27363        1.43818        2.45903
H         -2.91620        0.59238        1.72473
H         -2.96961        2.00805       -0.10086
H         -0.97245        2.68741        1.34167
H         -1.23238        4.04552        2.43663
H         -1.84478        2.44776        2.86472
H         -3.62873        4.76855       -0.34734
H         -2.28462        5.41325        0.60308
H         -2.00233        4.09305       -0.53705
H         -4.96932        4.30914        1.81681
H         -4.18226        3.48588        3.17388
H         -3.62032        5.07401        2.66319
H         -5.74257        1.87948        0.43862
H          0.84858       -1.39262        2.63880
H          2.22049       -0.89589        1.64664
H          1.32544        0.30880        2.61936

--Link1--
%chk=JID_9899.chk
%mem=8GB
%nprocshared=4
# B3LYP/6-311++G(d,p) empiricaldispersion=gd3bj scf=xqc pop=npa geom=check

CID_115476880_JID_9899_Energie_neutraal

0 1

--Link1--
%chk=JID_9899.chk
%mem=8GB
%nprocshared=4
# B3LYP/6-311++G(d,p) empiricaldispersion=gd3bj scf=xqc pop=npa geom=check

CID_115476880_JID_9899_Energie_kation

1 2

--Link1--
%chk=JID_9899.chk
%mem=8GB
%nprocshared=4
# B3LYP/6-311++G(d,p) empiricaldispersion=gd3bj scf=xqc pop=npa geom=check

CID_115476880_JID_9899_Energie_anion

-1 2
