%chk=JID_2850.chk
%mem=8GB
%nprocshared=4
# opt freq B3LYP/6-31G(d) empiricaldispersion=gd3bj scf=xqc

CID_130152083_JID_2850_neutraal

0 1
C          1.03120       -0.04954       -0.08107
C          0.81249        0.59111        1.29121
C         -0.70538        0.71614        1.60611
C         -1.08345        2.20265        1.45122
C          0.16556        2.85361        0.86662
C          1.34404        2.04117        1.44785
C          2.60856        2.42611        0.65554
C          2.87405        3.94060        0.71280
C          1.65182        4.78329        0.32309
C          0.35646        4.35636        1.02722
C          1.60942        2.28286        2.95857
O         -1.42816        2.77019        2.70551
H          0.58918        0.53927       -0.89031
H          0.57771       -1.04647       -0.11186
H          2.09882       -0.17416       -0.28794
H          1.28042       -0.07498        2.02750
H         -0.90764        0.36402        2.62443
H         -1.30018        0.09781        0.92444
H         -1.94189        2.32907        0.78308
H          0.12325        2.66368       -0.21741
H          2.50125        2.14946       -0.40016
H          3.48227        1.88226        1.03363
H          3.70762        4.18509        0.04368
H          3.20176        4.22380        1.71939
H          1.85237        5.84049        0.53093
H          1.50479        4.70115       -0.76155
H          0.39151        4.64970        2.08148
H         -0.49098        4.89089        0.58235
H          2.49405        1.71954        3.27946
H          1.79151        3.33330        3.19858
H          0.78292        1.94865        3.59260
H         -2.20004        2.28475        3.04320

--Link1--
%chk=JID_2850.chk
%mem=8GB
%nprocshared=4
# B3LYP/6-311++G(d,p) empiricaldispersion=gd3bj scf=xqc pop=npa geom=check

CID_130152083_JID_2850_Energie_neutraal

0 1

--Link1--
%chk=JID_2850.chk
%mem=8GB
%nprocshared=4
# B3LYP/6-311++G(d,p) empiricaldispersion=gd3bj scf=xqc pop=npa geom=check

CID_130152083_JID_2850_Energie_kation

1 2

--Link1--
%chk=JID_2850.chk
%mem=8GB
%nprocshared=4
# B3LYP/6-311++G(d,p) empiricaldispersion=gd3bj scf=xqc pop=npa geom=check

CID_130152083_JID_2850_Energie_anion

-1 2
