%chk=JID_5187.chk
%mem=8GB
%nprocshared=4
# opt freq B3LYP/6-31G(d) empiricaldispersion=gd3bj scf=xqc

CID_61394075_JID_5187_neutraal

0 1
C          0.90748        0.02682        0.02687
C          0.04557       -0.81497        0.95438
C          0.77736       -1.22052        2.18502
C          1.31612       -2.44412        2.52750
N          1.85897       -2.24887        3.77255
C          1.66550       -0.93741        4.13921
N          0.99262       -0.30690        3.19066
C          2.11829       -0.36044        5.41497
C          3.26961       -0.85830        6.05243
C          3.71005       -0.31737        7.26240
C          3.00190        0.72155        7.85676
C          1.86329        1.23254        7.23391
C          1.43570        0.73482        5.99513
N          0.20528        1.19794        5.47620
C          1.35606       -3.74935        1.83330
H          1.23998        0.94626        0.52073
H          0.34194        0.30686       -0.86740
H          1.79905       -0.52408       -0.29168
H         -0.84554       -0.24361        1.23979
H         -0.30851       -1.70147        0.41597
H          2.30720       -2.95013        4.34292
H          3.85022       -1.66149        5.60750
H          4.60208       -0.71103        7.74284
H          3.32824        1.13139        8.80890
H          1.30129        2.02381        7.72324
H          0.13155        0.95063        4.48041
H          0.05333        2.18806        5.62785
H          2.25765       -4.31093        2.09888
H          0.48366       -4.35132        2.10613
H          1.35496       -3.61626        0.74696

--Link1--
%chk=JID_5187.chk
%mem=8GB
%nprocshared=4
# B3LYP/6-311++G(d,p) empiricaldispersion=gd3bj scf=xqc pop=npa geom=check

CID_61394075_JID_5187_Energie_neutraal

0 1

--Link1--
%chk=JID_5187.chk
%mem=8GB
%nprocshared=4
# B3LYP/6-311++G(d,p) empiricaldispersion=gd3bj scf=xqc pop=npa geom=check

CID_61394075_JID_5187_Energie_kation

1 2

--Link1--
%chk=JID_5187.chk
%mem=8GB
%nprocshared=4
# B3LYP/6-311++G(d,p) empiricaldispersion=gd3bj scf=xqc pop=npa geom=check

CID_61394075_JID_5187_Energie_anion

-1 2
