%chk=JID_5988.chk
%mem=8GB
%nprocshared=4
# opt freq B3LYP/6-31G(d) empiricaldispersion=gd3bj scf=xqc

CID_154659213_JID_5988_neutraal

0 1
C          1.03760       -0.08497        0.03696
C          0.49881        0.43323        1.36867
O          1.26841        1.53587        1.83697
C          2.41075        1.32057        2.55022
C          3.00168        0.17232        2.89966
O         -0.90660        0.68309        1.30517
C         -1.45514        1.93209        0.85759
C         -1.22586        3.01887        1.91708
C         -0.93045        2.33123       -0.52268
O         -2.88168        1.64412        0.78198
C         -3.78395        2.57918        0.41777
O         -3.54365        3.71854        0.04866
C         -5.17814        2.05139        0.53197
C         -5.45284        0.82376        1.00623
C         -6.25501        2.99988        0.09712
H          1.24615        0.72494       -0.66615
H          0.33161       -0.77594       -0.43381
H          1.99119       -0.60325        0.18094
H          0.55679       -0.38992        2.08917
H          2.83137        2.28005        2.83574
H          3.91851        0.19463        3.48174
H          2.62121       -0.80667        2.63743
H         -0.18727        3.35568        1.95071
H         -1.83371        3.91099        1.74639
H         -1.48306        2.63941        2.91241
H         -1.07382        1.51294       -1.23724
H         -1.44006        3.20519       -0.93522
H          0.13469        2.57616       -0.49254
H         -6.47505        0.46792        1.08836
H         -4.67517        0.13851        1.33150
H         -6.21938        3.92047        0.68923
H         -6.13394        3.25879       -0.95989
H         -7.25433        2.56840        0.21978

--Link1--
%chk=JID_5988.chk
%mem=8GB
%nprocshared=4
# B3LYP/6-311++G(d,p) empiricaldispersion=gd3bj scf=xqc pop=npa geom=check

CID_154659213_JID_5988_Energie_neutraal

0 1

--Link1--
%chk=JID_5988.chk
%mem=8GB
%nprocshared=4
# B3LYP/6-311++G(d,p) empiricaldispersion=gd3bj scf=xqc pop=npa geom=check

CID_154659213_JID_5988_Energie_kation

1 2

--Link1--
%chk=JID_5988.chk
%mem=8GB
%nprocshared=4
# B3LYP/6-311++G(d,p) empiricaldispersion=gd3bj scf=xqc pop=npa geom=check

CID_154659213_JID_5988_Energie_anion

-1 2
