%chk=JID_3187.chk
%mem=8GB
%nprocshared=4
# opt freq B3LYP/6-31G(d) empiricaldispersion=gd3bj scf=xqc

CID_150389332_JID_3187_neutraal

0 1
C          1.04417       -0.08791       -0.01792
C          0.82811       -1.59841       -0.01743
C          1.13143       -2.29767        1.32743
C          0.41140       -1.64452        2.53966
C         -1.11220       -1.54064        2.47458
N         -1.71850       -2.82686        2.83177
N         -2.95863       -2.87693        2.74171
N         -4.09385       -2.91969        2.65515
C          0.82736       -3.81896        1.24961
C          1.47800       -4.64004        0.10911
C          3.00568       -4.63404        0.13084
C          0.97897       -6.08914        0.18631
O          2.53459       -2.12343        1.58259
H          0.33062        0.42294        0.63460
H          0.90258        0.30725       -1.02935
H          2.05768        0.17090        0.30331
H         -0.19802       -1.81298       -0.33709
H          1.49282       -2.00049       -0.79159
H          0.70303       -2.17519        3.45702
H          0.81598       -0.63225        2.67514
H         -1.43883       -0.78785        3.20312
H         -1.45242       -1.20721        1.48900
H          1.11605       -4.28087        2.20382
H         -0.25549       -3.95160        1.14845
H          1.14555       -4.23996       -0.85589
H          3.39134       -4.90850        1.11823
H          3.40850       -5.34696       -0.59720
H          3.40477       -3.65246       -0.13896
H         -0.11394       -6.12934        0.12746
H          1.37677       -6.68337       -0.64331
H          1.28690       -6.56593        1.12322
H          2.75844       -2.62992        2.38256

--Link1--
%chk=JID_3187.chk
%mem=8GB
%nprocshared=4
# B3LYP/6-311++G(d,p) empiricaldispersion=gd3bj scf=xqc pop=npa geom=check

CID_150389332_JID_3187_Energie_neutraal

0 1

--Link1--
%chk=JID_3187.chk
%mem=8GB
%nprocshared=4
# B3LYP/6-311++G(d,p) empiricaldispersion=gd3bj scf=xqc pop=npa geom=check

CID_150389332_JID_3187_Energie_kation

1 2

--Link1--
%chk=JID_3187.chk
%mem=8GB
%nprocshared=4
# B3LYP/6-311++G(d,p) empiricaldispersion=gd3bj scf=xqc pop=npa geom=check

CID_150389332_JID_3187_Energie_anion

-1 2
