%chk=JID_5488.chk
%mem=8GB
%nprocshared=4
# opt freq B3LYP/6-31G(d) empiricaldispersion=gd3bj scf=xqc

CID_71356984_JID_5488_neutraal

0 1
C          0.96067        0.05744        0.07179
C          0.12546       -1.21121       -0.09299
C          0.91681       -2.39138       -0.51877
C          1.66245       -2.50273       -1.63003
C          2.42567       -3.70442       -1.96971
C          3.81796       -3.70452       -1.83604
C          4.55451       -4.84538       -2.16136
C          3.90383       -5.98788       -2.62551
C          2.51638       -5.99272       -2.76248
C          1.77772       -4.85433       -2.43414
O          0.82250       -3.40605        0.41650
C          0.06462       -2.88647        1.43201
O         -0.22220       -3.49799        2.45032
O         -0.33965       -1.60566        1.18955
C         -1.09040       -0.96475       -0.98529
H          0.36660        0.85341        0.53574
H          1.33933        0.42617       -0.88725
H          1.81521       -0.11514        0.73703
H          1.74366       -1.68397       -2.33950
H          4.33768       -2.82281       -1.46946
H          5.63554       -4.84411       -2.04874
H          4.47767       -6.87625       -2.87663
H          2.00855       -6.88415       -3.12134
H          0.69596       -4.87263       -2.54146
H         -1.73149       -0.18488       -0.55810
H         -0.79933       -0.65697       -1.99515
H         -1.71317       -1.86396       -1.06499

--Link1--
%chk=JID_5488.chk
%mem=8GB
%nprocshared=4
# B3LYP/6-311++G(d,p) empiricaldispersion=gd3bj scf=xqc pop=npa geom=check

CID_71356984_JID_5488_Energie_neutraal

0 1

--Link1--
%chk=JID_5488.chk
%mem=8GB
%nprocshared=4
# B3LYP/6-311++G(d,p) empiricaldispersion=gd3bj scf=xqc pop=npa geom=check

CID_71356984_JID_5488_Energie_kation

1 2

--Link1--
%chk=JID_5488.chk
%mem=8GB
%nprocshared=4
# B3LYP/6-311++G(d,p) empiricaldispersion=gd3bj scf=xqc pop=npa geom=check

CID_71356984_JID_5488_Energie_anion

-1 2
