%chk=JID_10173.chk
%mem=8GB
%nprocshared=4
# opt freq B3LYP/6-31G(d) empiricaldispersion=gd3bj scf=xqc

CID_18550178_JID_10173_neutraal

0 1
C         -0.71700        1.22600        0.24100
C          0.80051        1.39318        0.08592
O          1.51083        0.57744        1.02364
C          1.20110       -0.80278        0.80898
C         -0.30820       -1.08027        0.92608
N         -1.18006       -0.16331        0.18965
C         -1.76620       -0.62252       -1.06686
C         -0.94952       -0.52636       -2.37115
N          0.15860       -1.46776       -2.42465
C          0.52298       -2.21770       -3.49324
O          0.92528       -3.36330       -3.28936
N          0.31667       -1.78376       -4.75526
C          0.42240       -0.50613       -5.25010
C          0.99969        0.68910       -4.86600
C          0.60905        1.70579       -5.80222
N         -0.10904        1.33600       -6.85858
S         -0.33022       -0.30251       -6.77348
C          1.88706        0.95296       -3.75987
O          2.02843        2.04753       -3.23375
O          2.64362       -0.09058       -3.36568
H         -0.99435        1.61240        1.23024
H         -1.24437        1.85332       -0.48679
H          1.13044        1.14041       -0.92460
H          1.07948        2.43448        0.27571
H          1.73725       -1.38131        1.56858
H          1.60010       -1.10265       -0.16385
H         -0.57445       -0.96756        1.98530
H         -0.51844       -2.12722        0.67904
H         -2.12035       -1.65430       -0.94331
H         -2.67893       -0.03165       -1.22186
H         -1.62302       -0.72895       -3.21146
H         -0.55547        0.48395       -2.49689
H          0.30530       -2.00887       -1.58396
H          0.24269       -2.52487       -5.44099
H          0.88411        2.75255       -5.73792
H          3.18711        0.26241       -2.63169

--Link1--
%chk=JID_10173.chk
%mem=8GB
%nprocshared=4
# B3LYP/6-311++G(d,p) empiricaldispersion=gd3bj scf=xqc pop=npa geom=check

CID_18550178_JID_10173_Energie_neutraal

0 1

--Link1--
%chk=JID_10173.chk
%mem=8GB
%nprocshared=4
# B3LYP/6-311++G(d,p) empiricaldispersion=gd3bj scf=xqc pop=npa geom=check

CID_18550178_JID_10173_Energie_kation

1 2

--Link1--
%chk=JID_10173.chk
%mem=8GB
%nprocshared=4
# B3LYP/6-311++G(d,p) empiricaldispersion=gd3bj scf=xqc pop=npa geom=check

CID_18550178_JID_10173_Energie_anion

-1 2
