%chk=JID_9995.chk
%mem=8GB
%nprocshared=4
# opt freq B3LYP/6-31G(d) empiricaldispersion=gd3bj scf=xqc

CID_116112870_JID_9995_neutraal

0 1
C          1.06253       -0.03202        0.07117
C          0.71056       -0.51313        1.48065
C          0.83004        0.63073        2.51197
N         -0.10299        1.72169        2.27187
C         -0.77645        2.52731        3.14382
O         -1.22747        3.57259        2.66401
C         -1.02338        2.12218        4.63054
C         -1.89171        3.23100        5.30893
C         -3.34619        3.34752        4.83682
C         -4.31687        2.48812        5.63577
C         -4.17374        0.99559        5.38280
C         -2.78868        0.44565        5.70361
C         -1.74254        0.73625        4.61946
C          0.29646        2.08982        5.45319
S          1.63154        3.06815        5.17370
N          0.34953        1.30459        6.57047
C         -0.61947       -1.22614        1.61313
C         -1.87217       -0.76749        0.90765
C         -1.21738       -2.06124        0.50652
H          0.31922        0.66211       -0.33143
H          1.14279       -0.87375       -0.62377
H          2.03163        0.47895        0.06961
H          1.47614       -1.25280        1.75258
H          0.71147        0.23629        3.52047
H          1.83431        1.06676        2.45934
H         -0.02641        2.17808        1.36990
H         -1.87258        3.11883        6.40136
H         -1.41464        4.20433        5.12382
H         -3.44862        3.13284        3.76827
H         -3.65484        4.39245        4.97059
H         -5.34060        2.78307        5.37385
H         -4.20320        2.69507        6.70701
H         -4.44331        0.76381        4.34531
H         -4.90670        0.47623        6.01289
H         -2.88619       -0.64603        5.77212
H         -2.46383        0.78209        6.69256
H         -2.22084        0.57155        3.64557
H         -0.99160       -0.05776        4.70452
H         -0.40211        0.71420        6.89722
H          1.18831        1.33530        7.14086
H         -0.74189       -1.62023        2.61920
H         -2.80836       -0.82014        1.45319
H         -1.82446        0.06529        0.21677
H         -0.74094       -2.10395       -0.46466
H         -1.71508       -2.98503        0.78258

--Link1--
%chk=JID_9995.chk
%mem=8GB
%nprocshared=4
# B3LYP/6-311++G(d,p) empiricaldispersion=gd3bj scf=xqc pop=npa geom=check

CID_116112870_JID_9995_Energie_neutraal

0 1

--Link1--
%chk=JID_9995.chk
%mem=8GB
%nprocshared=4
# B3LYP/6-311++G(d,p) empiricaldispersion=gd3bj scf=xqc pop=npa geom=check

CID_116112870_JID_9995_Energie_kation

1 2

--Link1--
%chk=JID_9995.chk
%mem=8GB
%nprocshared=4
# B3LYP/6-311++G(d,p) empiricaldispersion=gd3bj scf=xqc pop=npa geom=check

CID_116112870_JID_9995_Energie_anion

-1 2
