%chk=JID_1092.chk
%mem=8GB
%nprocshared=4
# opt freq B3LYP/6-31G(d) empiricaldispersion=gd3bj scf=xqc

CID_130692417_JID_1092_neutraal

0 1
C         -1.37400       -0.67500       -0.00300
C         -0.17608       -1.35739        0.00984
S          1.09228       -0.21815        0.08244
N          0.11994        1.12040        0.10734
C         -1.16218        0.74698        0.04029
C         -2.26320        1.67633        0.04409
C         -2.18964        3.01722       -0.08732
C         -3.45381        3.82450        0.01736
O         -3.48916        5.04033        0.12838
O         -4.58926        3.10490       -0.01505
N         -1.01775        3.74181       -0.27762
H         -2.33978       -1.16097       -0.04818
H          0.00673       -2.42177       -0.01978
H         -3.24096        1.22124        0.18027
H         -5.28570        3.79216        0.04292
H         -0.18913        3.20088       -0.01530
H         -1.06197        4.66638        0.14871

--Link1--
%chk=JID_1092.chk
%mem=8GB
%nprocshared=4
# B3LYP/6-311++G(d,p) empiricaldispersion=gd3bj scf=xqc pop=npa geom=check

CID_130692417_JID_1092_Energie_neutraal

0 1

--Link1--
%chk=JID_1092.chk
%mem=8GB
%nprocshared=4
# B3LYP/6-311++G(d,p) empiricaldispersion=gd3bj scf=xqc pop=npa geom=check

CID_130692417_JID_1092_Energie_kation

1 2

--Link1--
%chk=JID_1092.chk
%mem=8GB
%nprocshared=4
# B3LYP/6-311++G(d,p) empiricaldispersion=gd3bj scf=xqc pop=npa geom=check

CID_130692417_JID_1092_Energie_anion

-1 2
