%chk=JID_8830.chk
%mem=8GB
%nprocshared=4
# opt freq B3LYP/6-31G(d) empiricaldispersion=gd3bj scf=xqc

CID_72035135_JID_8830_neutraal

0 1
C          0.96117       -0.05008        0.07736
C          0.04893       -1.17946        0.52402
C          0.81714       -2.46446        0.65554
N          1.78544       -2.60005        1.52528
N          2.14688       -3.91501        1.42286
C          1.31692       -4.57198        0.51862
S          1.32824       -6.21543        0.27920
N          0.53836       -3.58565       -0.05700
N         -0.59321       -3.85158       -0.76114
C         -0.77125       -3.29730       -1.92401
C          0.09937       -2.40851       -2.71889
C         -0.53267       -1.30597       -3.31273
C          0.20426       -0.39942       -4.07724
C          1.57230       -0.59286       -4.25853
C          2.20007       -1.70281       -3.69297
C          1.46030       -2.62642       -2.94847
O          2.13509       -3.70240       -2.44440
C          2.04056       -4.81451       -3.33618
H          1.73576        0.14941        0.82547
H          0.38574        0.86964       -0.06579
H          1.46655       -0.29050       -0.86179
H         -0.37060       -0.93844        1.50760
H         -0.79190       -1.27962       -0.16395
H          2.80537       -4.34568        2.05956
H         -1.74823       -3.50571       -2.39597
H         -1.59656       -1.13108       -3.16672
H         -0.28609        0.46303       -4.52318
H          2.15117        0.11884       -4.84257
H          3.26696       -1.85439       -3.83779
H          1.00976       -5.17714       -3.40634
H          2.42294       -4.56117       -4.33128
H          2.66014       -5.62121       -2.93388

--Link1--
%chk=JID_8830.chk
%mem=8GB
%nprocshared=4
# B3LYP/6-311++G(d,p) empiricaldispersion=gd3bj scf=xqc pop=npa geom=check

CID_72035135_JID_8830_Energie_neutraal

0 1

--Link1--
%chk=JID_8830.chk
%mem=8GB
%nprocshared=4
# B3LYP/6-311++G(d,p) empiricaldispersion=gd3bj scf=xqc pop=npa geom=check

CID_72035135_JID_8830_Energie_kation

1 2

--Link1--
%chk=JID_8830.chk
%mem=8GB
%nprocshared=4
# B3LYP/6-311++G(d,p) empiricaldispersion=gd3bj scf=xqc pop=npa geom=check

CID_72035135_JID_8830_Energie_anion

-1 2
