%chk=JID_9247.chk
%mem=8GB
%nprocshared=4
# opt freq B3LYP/6-31G(d) empiricaldispersion=gd3bj scf=xqc

CID_62487312_JID_9247_neutraal

0 1
C          3.23100       -0.68400       -0.00400
C          1.78372       -0.26713       -0.08250
N          0.88504       -1.20489       -0.07149
N         -0.40032       -0.73814       -0.20426
C         -0.78976        0.58544       -0.27259
N         -2.09848        0.66476       -0.32982
N         -2.58968       -0.61751       -0.32491
C         -1.57024       -1.46592       -0.28442
C         -1.68146       -2.97935       -0.24893
C         -2.09659       -3.37482        1.18906
C         -2.67400       -3.45713       -1.32974
C         -3.98269       -3.88059       -1.04310
C         -4.84697       -4.29150       -2.06419
C         -4.42521       -4.28075       -3.39126
C         -3.13981       -3.85304       -3.70349
C         -2.27755       -3.44207       -2.68554
N         -0.39864       -3.67130       -0.50344
C          0.21690        1.57110       -0.25942
C          1.49885        1.19445       -0.17492
H          3.39234       -1.25572        0.91462
H          3.47026       -1.31647       -0.86393
H          3.90021        0.18005       -0.00385
H         -3.02055       -2.87159        1.50027
H         -2.25830       -4.45550        1.28597
H         -1.32838       -3.08819        1.91919
H         -4.36384       -3.88670       -0.02611
H         -5.85676       -4.61160       -1.82084
H         -5.10073       -4.59586       -4.18141
H         -2.80524       -3.83232       -4.73684
H         -1.27664       -3.10506       -2.95194
H          0.32125       -3.27415        0.10206
H         -0.49605       -4.65398       -0.26145
H         -0.07080        2.61399       -0.32372
H          2.31612        1.90312       -0.16534

--Link1--
%chk=JID_9247.chk
%mem=8GB
%nprocshared=4
# B3LYP/6-311++G(d,p) empiricaldispersion=gd3bj scf=xqc pop=npa geom=check

CID_62487312_JID_9247_Energie_neutraal

0 1

--Link1--
%chk=JID_9247.chk
%mem=8GB
%nprocshared=4
# B3LYP/6-311++G(d,p) empiricaldispersion=gd3bj scf=xqc pop=npa geom=check

CID_62487312_JID_9247_Energie_kation

1 2

--Link1--
%chk=JID_9247.chk
%mem=8GB
%nprocshared=4
# B3LYP/6-311++G(d,p) empiricaldispersion=gd3bj scf=xqc pop=npa geom=check

CID_62487312_JID_9247_Energie_anion

-1 2
