%chk=JID_6435.chk
%mem=8GB
%nprocshared=4
# opt freq B3LYP/6-31G(d) empiricaldispersion=gd3bj scf=xqc

CID_81301493_JID_6435_neutraal

0 1
C          0.94094       -0.02367        0.07715
C          0.58224       -1.07966        1.08179
C          0.73637       -2.43670        0.76206
C          0.41245       -3.39458        1.71382
C         -0.03282       -3.01352        2.98530
C         -0.27047       -4.21251        3.84548
C         -0.39731       -5.31148        2.78101
C          0.53188       -4.89832        1.61315
N          0.09671       -5.39116        0.31226
C          0.58320       -6.69239       -0.11679
C          2.07633       -6.75811       -0.44606
C          2.37102       -8.25641       -0.55756
C          1.21434       -8.97696        0.14012
C          0.40301       -7.88069        0.82340
C         -0.16063       -1.67968        3.33099
C          0.14754       -0.71224        2.37095
H          0.37093        0.89467        0.25276
H          0.70960       -0.36000       -0.93901
H          2.00895        0.20590        0.14124
H          1.09780       -2.74483       -0.21537
H         -1.18335       -4.12761        4.44147
H          0.59101       -4.38769        4.49801
H         -1.44349       -5.35463        2.44417
H         -0.15642       -6.29435        3.19518
H          1.57242       -5.15705        1.83960
H         -0.92054       -5.36106        0.26784
H          0.04345       -6.92053       -1.04726
H          2.32245       -6.22547       -1.37037
H          2.69171       -6.33329        0.35465
H          3.33180       -8.49782       -0.09068
H          2.42945       -8.56614       -1.60691
H          1.56704       -9.72875        0.85284
H          0.59710       -9.49183       -0.60575
H          0.83933       -7.68984        1.80899
H         -0.64578       -8.16321        0.95421
H         -0.49014       -1.38612        4.32232
H          0.05071        0.33952        2.63178

--Link1--
%chk=JID_6435.chk
%mem=8GB
%nprocshared=4
# B3LYP/6-311++G(d,p) empiricaldispersion=gd3bj scf=xqc pop=npa geom=check

CID_81301493_JID_6435_Energie_neutraal

0 1

--Link1--
%chk=JID_6435.chk
%mem=8GB
%nprocshared=4
# B3LYP/6-311++G(d,p) empiricaldispersion=gd3bj scf=xqc pop=npa geom=check

CID_81301493_JID_6435_Energie_kation

1 2

--Link1--
%chk=JID_6435.chk
%mem=8GB
%nprocshared=4
# B3LYP/6-311++G(d,p) empiricaldispersion=gd3bj scf=xqc pop=npa geom=check

CID_81301493_JID_6435_Energie_anion

-1 2
