%chk=JID_7996.chk
%mem=8GB
%nprocshared=4
# opt freq B3LYP/6-31G(d) empiricaldispersion=gd3bj scf=xqc

CID_54694339_JID_7996_neutraal

0 1
C          1.05842       -0.05268        0.06174
C          0.36140       -0.85048       -1.00695
C          0.53001       -2.18352       -1.06387
C         -0.14411       -2.97184       -2.05370
C         -0.98956       -2.41334       -2.92234
C         -1.22731       -0.94937       -2.87217
O         -2.05256       -0.47139       -3.64771
N         -0.49193       -0.22092       -1.92505
C         -0.63928        1.24021       -1.96206
C          0.47679        1.95895       -2.73963
C          0.49444        1.68090       -4.22306
C          1.36432        0.72007       -4.75707
C          1.37482        0.45908       -6.12820
C          0.51598        1.15375       -6.97764
C         -0.35633        2.10725       -6.45652
C         -0.36903        2.36916       -5.08564
O          0.14536       -4.31264       -2.01481
H          1.66517       -0.69078        0.71452
H          0.33140        0.45506        0.70355
H          1.73427        0.68921       -0.37053
H          1.17318       -2.70768       -0.36343
H         -1.52938       -2.96028       -3.68152
H         -1.61067        1.49830       -2.40128
H         -0.67600        1.61981       -0.93528
H          0.36235        3.04135       -2.59557
H          1.45936        1.71343       -2.32172
H          2.03318        0.16227       -4.10581
H          2.04931       -0.29043       -6.53282
H          0.52003        0.94703       -8.04423
H         -1.03438        2.64178       -7.11626
H         -1.06464        3.10760       -4.69450
H         -0.35903       -4.75701       -2.71764

--Link1--
%chk=JID_7996.chk
%mem=8GB
%nprocshared=4
# B3LYP/6-311++G(d,p) empiricaldispersion=gd3bj scf=xqc pop=npa geom=check

CID_54694339_JID_7996_Energie_neutraal

0 1

--Link1--
%chk=JID_7996.chk
%mem=8GB
%nprocshared=4
# B3LYP/6-311++G(d,p) empiricaldispersion=gd3bj scf=xqc pop=npa geom=check

CID_54694339_JID_7996_Energie_kation

1 2

--Link1--
%chk=JID_7996.chk
%mem=8GB
%nprocshared=4
# B3LYP/6-311++G(d,p) empiricaldispersion=gd3bj scf=xqc pop=npa geom=check

CID_54694339_JID_7996_Energie_anion

-1 2
