%chk=JID_6020.chk
%mem=8GB
%nprocshared=4
# opt freq B3LYP/6-31G(d) empiricaldispersion=gd3bj scf=xqc

CID_115086104_JID_6020_neutraal

0 1
C         -2.13300       -0.01500        0.07600
N         -0.72494        0.13313       -0.27726
C          0.10247       -0.83537        0.44861
C          1.51252       -0.30263        0.26861
C          1.34161        1.18275       -0.02367
C         -0.16577        1.45536        0.07777
C         -0.56414        2.61347       -0.85017
C         -1.83492        3.26144       -0.43857
N         -2.10899        3.91575        0.67310
C         -3.41322        4.30759        0.51111
C         -3.88714        3.87407       -0.70469
O         -2.87342        3.20214       -1.32889
C         -5.17757        3.97055       -1.41395
C         -5.23306        5.22491       -2.24073
O         -5.46194        5.28625       -3.43886
O         -5.08210        6.35828       -1.52428
H         -2.46375       -1.04402       -0.10596
H         -2.32921        0.22453        1.12714
H         -2.76307        0.62023       -0.55185
H         -0.14832       -0.86211        1.51701
H          0.00078       -1.84718        0.04315
H          2.01102       -0.79234       -0.57609
H          2.12177       -0.47259        1.16211
H          1.72825        1.40131       -1.02699
H          1.90398        1.79608        0.68872
H         -0.39812        1.69824        1.12509
H          0.21492        3.38636       -0.82691
H         -0.62594        2.26955       -1.88999
H         -3.93524        4.87589        1.26860
H         -5.31016        3.11039       -2.07956
H         -6.01968        3.97497       -0.71425
H         -5.14413        7.07206       -2.19409

--Link1--
%chk=JID_6020.chk
%mem=8GB
%nprocshared=4
# B3LYP/6-311++G(d,p) empiricaldispersion=gd3bj scf=xqc pop=npa geom=check

CID_115086104_JID_6020_Energie_neutraal

0 1

--Link1--
%chk=JID_6020.chk
%mem=8GB
%nprocshared=4
# B3LYP/6-311++G(d,p) empiricaldispersion=gd3bj scf=xqc pop=npa geom=check

CID_115086104_JID_6020_Energie_kation

1 2

--Link1--
%chk=JID_6020.chk
%mem=8GB
%nprocshared=4
# B3LYP/6-311++G(d,p) empiricaldispersion=gd3bj scf=xqc pop=npa geom=check

CID_115086104_JID_6020_Energie_anion

-1 2
