%chk=JID_6996.chk
%mem=8GB
%nprocshared=4
# opt freq B3LYP/6-31G(d) empiricaldispersion=gd3bj scf=xqc

CID_123359010_JID_6996_neutraal

0 1
C         -2.52600       -0.02400        0.00000
C         -1.03880       -0.09453       -0.00167
C         -0.24837        0.89438        0.54230
N          1.09871        0.87440        0.52530
C          1.67996       -0.18374       -0.07481
N          0.99895       -1.19398       -0.65222
C         -0.34548       -1.12056       -0.60584
C          3.15688       -0.23803       -0.10542
C          3.94384        0.78601        0.45560
C          5.34360        0.73520        0.42785
C          6.00461       -0.33720       -0.17650
C          5.24138       -1.37514       -0.71784
C          3.84190       -1.32088       -0.68929
N          7.40845       -0.40130       -0.17744
C          7.88257        0.05833       -1.14990
S          8.56040        0.67175       -2.45516
H         -2.89150        0.50016        0.88936
H         -2.87976        0.50490       -0.89036
H         -2.96519       -1.02715        0.01115
H         -0.68351        1.76492        1.02599
H         -0.86222       -1.94552       -1.08908
H          3.46413        1.64108        0.93062
H          5.91580        1.53861        0.88518
H          5.73235       -2.23670       -1.16359
H          3.28085       -2.14591       -1.12687

--Link1--
%chk=JID_6996.chk
%mem=8GB
%nprocshared=4
# B3LYP/6-311++G(d,p) empiricaldispersion=gd3bj scf=xqc pop=npa geom=check

CID_123359010_JID_6996_Energie_neutraal

0 1

--Link1--
%chk=JID_6996.chk
%mem=8GB
%nprocshared=4
# B3LYP/6-311++G(d,p) empiricaldispersion=gd3bj scf=xqc pop=npa geom=check

CID_123359010_JID_6996_Energie_kation

1 2

--Link1--
%chk=JID_6996.chk
%mem=8GB
%nprocshared=4
# B3LYP/6-311++G(d,p) empiricaldispersion=gd3bj scf=xqc pop=npa geom=check

CID_123359010_JID_6996_Energie_anion

-1 2
