%chk=JID_8860.chk
%mem=8GB
%nprocshared=4
# opt freq B3LYP/6-31G(d) empiricaldispersion=gd3bj scf=xqc

CID_101299585_JID_8860_neutraal

0 1
C          0.91166       -0.04678       -0.00286
C          0.48352        0.95904        1.04388
C         -0.19979        0.51869        2.20587
C         -0.55949        1.45557        3.19274
C         -0.30870        2.82688        3.04088
C          0.30947        3.25203        1.85537
C          0.71391        2.34583        0.84622
C          1.35380        2.84224       -0.38644
C          2.71348        3.18891       -0.39927
C          3.30133        3.67895       -1.56143
C          2.55995        3.83261       -2.72805
C          1.20796        3.49145       -2.72887
C          0.60816        3.00217       -1.56569
O          4.62407        4.00594       -1.51315
O          0.50289        4.60724        1.70872
C         -0.70388        3.81788        4.10240
O         -1.17173        0.96646        4.31926
C         -0.50011       -0.94595        2.41963
H          0.08558       -0.23809       -0.69475
H          1.22229       -0.99123        0.45503
H          1.78081        0.29181       -0.57412
H          3.31753        3.07596        0.49861
H          3.01301        4.21312       -3.63808
H          0.61764        3.60606       -3.63466
H         -0.44931        2.74300       -1.57917
H          4.90293        4.31256       -2.39156
H          0.92390        4.78064        0.85013
H         -1.79292        3.83030        4.21551
H         -0.24178        3.54917        5.05840
H         -0.38735        4.84045        3.87823
H         -1.39897        1.69571        4.91471
H          0.39715       -1.46261        2.77422
H         -1.30092       -1.10646        3.14804
H         -0.84701       -1.41269        1.49187

--Link1--
%chk=JID_8860.chk
%mem=8GB
%nprocshared=4
# B3LYP/6-311++G(d,p) empiricaldispersion=gd3bj scf=xqc pop=npa geom=check

CID_101299585_JID_8860_Energie_neutraal

0 1

--Link1--
%chk=JID_8860.chk
%mem=8GB
%nprocshared=4
# B3LYP/6-311++G(d,p) empiricaldispersion=gd3bj scf=xqc pop=npa geom=check

CID_101299585_JID_8860_Energie_kation

1 2

--Link1--
%chk=JID_8860.chk
%mem=8GB
%nprocshared=4
# B3LYP/6-311++G(d,p) empiricaldispersion=gd3bj scf=xqc pop=npa geom=check

CID_101299585_JID_8860_Energie_anion

-1 2
