%chk=JID_8750.chk
%mem=8GB
%nprocshared=4
# opt freq B3LYP/6-31G(d) empiricaldispersion=gd3bj scf=xqc

CID_132014298_JID_8750_neutraal

0 1
C          0.94772        0.07679        0.03703
C          0.82012        1.59521        0.10839
N          1.62153        2.27418       -0.90931
C          1.24982        3.68692       -1.07726
C          1.80994        4.63592       -0.00558
N          3.27861        4.54100        0.13370
C          3.78433        3.13586        0.26594
C          3.08151        2.17025       -0.73990
C          3.72853        2.69014        1.75021
C          4.26415        1.30896        2.04680
C          3.48157        0.39334        2.76531
C          3.96386       -0.88461        3.05200
C          5.23881       -1.25806        2.63508
C          6.03561       -0.35038        1.94092
C          5.55520        0.92912        1.65485
C          4.05192        5.67403        0.43911
S          3.48011        7.24337        0.63709
S          5.79248        5.43744        0.60768
H          0.69939       -0.29095       -0.96437
H          0.25191       -0.38772        0.74377
H          1.95184       -0.27137        0.28998
H         -0.23986        1.82235       -0.06419
H          1.04307        1.94213        1.11946
H          1.62433        4.01524       -2.05618
H          0.15960        3.79446       -1.13288
H          1.37158        4.41697        0.97494
H          1.50325        5.64900       -0.27632
H          4.83372        3.12705       -0.04247
H          3.39032        1.13499       -0.56629
H          3.50403        2.40332       -1.72868
H          4.30689        3.39228        2.36509
H          2.70527        2.78169        2.12836
H          2.48486        0.66584        3.10522
H          3.34468       -1.58779        3.60296
H          5.61465       -2.25305        2.85821
H          7.03574       -0.63726        1.62617
H          6.20457        1.62502        1.12851
H          6.06748        6.72740        0.84708

--Link1--
%chk=JID_8750.chk
%mem=8GB
%nprocshared=4
# B3LYP/6-311++G(d,p) empiricaldispersion=gd3bj scf=xqc pop=npa geom=check

CID_132014298_JID_8750_Energie_neutraal

0 1

--Link1--
%chk=JID_8750.chk
%mem=8GB
%nprocshared=4
# B3LYP/6-311++G(d,p) empiricaldispersion=gd3bj scf=xqc pop=npa geom=check

CID_132014298_JID_8750_Energie_kation

1 2

--Link1--
%chk=JID_8750.chk
%mem=8GB
%nprocshared=4
# B3LYP/6-311++G(d,p) empiricaldispersion=gd3bj scf=xqc pop=npa geom=check

CID_132014298_JID_8750_Energie_anion

-1 2
