%chk=JID_9712.chk
%mem=8GB
%nprocshared=4
# opt freq B3LYP/6-31G(d) empiricaldispersion=gd3bj scf=xqc

CID_116073162_JID_9712_neutraal

0 1
C          0.96067        0.07876       -0.04745
C          0.49640       -1.03672       -0.98887
C          0.43294       -2.37704       -0.24975
C         -0.92623       -0.69402       -1.51608
O         -0.83956        0.46289       -2.36557
C         -2.12133        0.84632       -2.85121
N          1.36137       -1.17101       -2.19782
S          3.03578       -1.16157       -2.15855
O          3.48821       -1.83202       -0.96280
O          3.47386       -1.54873       -3.48106
C          3.56195        0.53566       -2.04078
C          3.00251        1.70951       -2.50342
C          3.80280        2.86006       -2.19344
C          4.95612        2.51590       -1.50585
S          5.05850        0.81878       -1.27584
N          5.94317        3.30419       -1.02547
N          3.44033        4.21199       -2.55798
O          2.30848        4.36951       -3.03567
O          4.27703        5.10902       -2.38367
H          0.26429        0.19057        0.79204
H          1.01161        1.04665       -0.55468
H          1.94420       -0.12801        0.38499
H         -0.30927       -2.34681        0.55604
H          0.15765       -3.19201       -0.92904
H          1.39266       -2.64159        0.20373
H         -1.32466       -1.52818       -2.10739
H         -1.61119       -0.49215       -0.68354
H         -2.56306        0.03901       -3.44311
H         -2.78158        1.11034       -2.01960
H         -1.99770        1.72330       -3.49201
H          0.99166       -0.65933       -3.00433
H          2.05863        1.74363       -3.03687
H          6.81974        2.89716       -0.70975
H          6.00783        4.28640       -1.29934

--Link1--
%chk=JID_9712.chk
%mem=8GB
%nprocshared=4
# B3LYP/6-311++G(d,p) empiricaldispersion=gd3bj scf=xqc pop=npa geom=check

CID_116073162_JID_9712_Energie_neutraal

0 1

--Link1--
%chk=JID_9712.chk
%mem=8GB
%nprocshared=4
# B3LYP/6-311++G(d,p) empiricaldispersion=gd3bj scf=xqc pop=npa geom=check

CID_116073162_JID_9712_Energie_kation

1 2

--Link1--
%chk=JID_9712.chk
%mem=8GB
%nprocshared=4
# B3LYP/6-311++G(d,p) empiricaldispersion=gd3bj scf=xqc pop=npa geom=check

CID_116073162_JID_9712_Energie_anion

-1 2
