%chk=JID_4339.chk
%mem=8GB
%nprocshared=4
# opt freq B3LYP/6-31G(d) empiricaldispersion=gd3bj scf=xqc

CID_20117780_JID_4339_neutraal

0 1
C          0.94724        0.07778        0.03417
C          0.82649       -1.43795        0.09612
C          1.51132       -2.04137        1.32233
C          0.70037       -1.79751        2.57921
O         -0.28501       -2.50479        2.81784
N          0.91364       -0.71887        3.38353
C          1.99322        0.16392        3.53397
C          3.31945       -0.16989        3.26704
C          4.33741        0.76718        3.46252
C          4.03717        2.03955        3.94466
C          2.71699        2.38431        4.25661
C          1.70594        1.42969        4.06396
C          2.39281        3.75407        4.79420
N          2.95124        3.94641        6.12584
H          0.39957        0.55656        0.85083
H          0.52809        0.44890       -0.90661
H          1.99413        0.39309        0.08437
H         -0.23370       -1.71618        0.07287
H          1.28804       -1.85945       -0.80473
H          1.58074       -3.12932        1.20012
H          2.53415       -1.68461        1.37834
H          0.10853       -0.54469        3.97455
H          3.60964       -1.17264        2.97535
H          5.37082        0.49634        3.26028
H          4.83859        2.75857        4.10468
H          0.67803        1.69289        4.30438
H          2.79193        4.51268        4.11138
H          1.30762        3.90285        4.83225
H          2.62794        4.83644        6.49901
H          2.58712        3.22396        6.74523

--Link1--
%chk=JID_4339.chk
%mem=8GB
%nprocshared=4
# B3LYP/6-311++G(d,p) empiricaldispersion=gd3bj scf=xqc pop=npa geom=check

CID_20117780_JID_4339_Energie_neutraal

0 1

--Link1--
%chk=JID_4339.chk
%mem=8GB
%nprocshared=4
# B3LYP/6-311++G(d,p) empiricaldispersion=gd3bj scf=xqc pop=npa geom=check

CID_20117780_JID_4339_Energie_kation

1 2

--Link1--
%chk=JID_4339.chk
%mem=8GB
%nprocshared=4
# B3LYP/6-311++G(d,p) empiricaldispersion=gd3bj scf=xqc pop=npa geom=check

CID_20117780_JID_4339_Energie_anion

-1 2
