%chk=JID_9718.chk
%mem=8GB
%nprocshared=4
# opt freq B3LYP/6-31G(d) empiricaldispersion=gd3bj scf=xqc

CID_92110852_JID_9718_neutraal

0 1
C          1.06000        0.65500        0.00200
C         -0.26359        1.02307        0.02319
O         -1.06297       -0.06454       -0.11872
C         -0.24450       -1.15982       -0.22769
C          1.07514       -0.75017       -0.16022
C         -0.90705       -2.50442       -0.39843
C         -1.97831       -2.74344        0.70994
N         -3.15681       -1.88255        0.63548
C         -4.33944       -2.04031        1.31279
O         -5.23312       -1.20015        1.25835
C         -4.58291       -3.33035        2.13510
O         -3.68785       -3.96954        2.66185
N         -5.90580       -3.67167        2.23904
C         -1.47001       -2.72216       -1.80175
C         -1.66669       -1.81005       -2.82731
C         -2.23041       -2.39813       -3.99609
C         -2.45138       -3.74570       -3.83913
S         -1.98030       -4.29754       -2.29500
O          0.14480       -3.47068       -0.22780
H          1.90905        1.31754        0.09427
H         -0.77508        1.97032        0.12612
H          1.93745       -1.40088       -0.22047
H         -2.30986       -3.78714        0.67602
H         -1.53135       -2.59657        1.70174
H         -3.02777       -0.95196        0.24962
H         -6.60630       -3.00187        1.93928
H         -6.16371       -4.41500        2.87132
H         -1.41863       -0.75742       -2.74864
H         -2.46205       -1.85745       -4.90575
H         -2.86824       -4.43539       -4.56036
H         -0.21532       -4.32305       -0.52857

--Link1--
%chk=JID_9718.chk
%mem=8GB
%nprocshared=4
# B3LYP/6-311++G(d,p) empiricaldispersion=gd3bj scf=xqc pop=npa geom=check

CID_92110852_JID_9718_Energie_neutraal

0 1

--Link1--
%chk=JID_9718.chk
%mem=8GB
%nprocshared=4
# B3LYP/6-311++G(d,p) empiricaldispersion=gd3bj scf=xqc pop=npa geom=check

CID_92110852_JID_9718_Energie_kation

1 2

--Link1--
%chk=JID_9718.chk
%mem=8GB
%nprocshared=4
# B3LYP/6-311++G(d,p) empiricaldispersion=gd3bj scf=xqc pop=npa geom=check

CID_92110852_JID_9718_Energie_anion

-1 2
