%chk=JID_6743.chk
%mem=8GB
%nprocshared=4
# opt freq B3LYP/6-31G(d) empiricaldispersion=gd3bj scf=xqc

CID_82509407_JID_6743_neutraal

0 1
C          1.07152       -0.06845        0.01411
N          0.21616        1.06728       -0.29052
C         -1.21387        0.87151       -0.11923
C          0.69928        2.27912        0.20836
N         -0.17056        3.26218        0.49990
C          0.32388        4.41653        0.98854
C          1.66114        4.65245        1.20557
C          2.47578        3.60638        0.84636
N          2.02649        2.43149        0.36373
C          2.17835        5.94282        1.75276
N          2.39200        6.03495        3.19750
C          1.19143        5.90408        4.03306
C          0.92661        4.49365        4.60717
N          2.10325        3.92239        5.28107
C          3.22558        3.89895        4.33103
C          3.53926        5.28680        3.72693
H          0.64654       -0.98707       -0.40655
H          1.17450       -0.21533        1.09576
H          2.06676        0.04036       -0.43217
H         -1.49314        0.84355        0.94046
H         -1.79182        1.65316       -0.62594
H         -1.52224       -0.07883       -0.56990
H         -0.42750        5.16959        1.20877
H          3.55581        3.66986        0.94166
H          3.11277        6.19749        1.23396
H          1.49360        6.74890        1.45461
H          1.32012        6.58764        4.88312
H          0.29906        6.26596        3.50830
H          0.59259        3.80911        3.82039
H          0.10722        4.55253        5.33241
H          2.35580        4.54110        6.05218
H          3.01222        3.17159        3.54164
H          4.11517        3.53033        4.85438
H          4.33396        5.19277        2.97692
H          3.97269        5.90173        4.52725

--Link1--
%chk=JID_6743.chk
%mem=8GB
%nprocshared=4
# B3LYP/6-311++G(d,p) empiricaldispersion=gd3bj scf=xqc pop=npa geom=check

CID_82509407_JID_6743_Energie_neutraal

0 1

--Link1--
%chk=JID_6743.chk
%mem=8GB
%nprocshared=4
# B3LYP/6-311++G(d,p) empiricaldispersion=gd3bj scf=xqc pop=npa geom=check

CID_82509407_JID_6743_Energie_kation

1 2

--Link1--
%chk=JID_6743.chk
%mem=8GB
%nprocshared=4
# B3LYP/6-311++G(d,p) empiricaldispersion=gd3bj scf=xqc pop=npa geom=check

CID_82509407_JID_6743_Energie_anion

-1 2
