%chk=JID_2317.chk
%mem=8GB
%nprocshared=4
# opt freq B3LYP/6-31G(d) empiricaldispersion=gd3bj scf=xqc

CID_131039753_JID_2317_neutraal

0 1
C         -1.74700        0.00400       -0.45100
C         -0.44859       -0.35746        0.26192
C          0.91126       -0.06732       -0.44168
C          0.84785       -1.47213       -1.06503
C         -0.09105       -1.87505        0.08184
N         -0.50687       -0.01193        1.70008
C         -0.83689        1.11843        2.35578
O         -1.20772        1.02752        3.52714
N         -0.77828        2.33646        1.79297
C          0.14048        2.78778        0.78059
C          0.08492        4.28293        0.74202
C          1.08062        5.09004        1.13170
H         -1.93325        1.08081       -0.45247
H         -1.73541       -0.31945       -1.49757
H         -2.60433       -0.47914        0.03144
H          0.92640        0.74037       -1.17784
H          1.75780        0.06355        0.24311
H          1.79675       -2.01232       -1.11369
H          0.37592       -1.49725       -2.05366
H          0.44101       -2.32572        0.92932
H         -0.91169       -2.54168       -0.19988
H         -0.62359       -0.78466        2.34903
H         -1.02388        3.02929        2.48921
H          1.14262        2.41619        1.01594
H         -0.16951        2.40691       -0.19193
H         -0.83042        4.72440        0.35281
H          0.97679        6.16939        1.07131
H          2.01460        4.69865        1.52394

--Link1--
%chk=JID_2317.chk
%mem=8GB
%nprocshared=4
# B3LYP/6-311++G(d,p) empiricaldispersion=gd3bj scf=xqc pop=npa geom=check

CID_131039753_JID_2317_Energie_neutraal

0 1

--Link1--
%chk=JID_2317.chk
%mem=8GB
%nprocshared=4
# B3LYP/6-311++G(d,p) empiricaldispersion=gd3bj scf=xqc pop=npa geom=check

CID_131039753_JID_2317_Energie_kation

1 2

--Link1--
%chk=JID_2317.chk
%mem=8GB
%nprocshared=4
# B3LYP/6-311++G(d,p) empiricaldispersion=gd3bj scf=xqc pop=npa geom=check

CID_131039753_JID_2317_Energie_anion

-1 2
