%chk=JID_9162.chk
%mem=8GB
%nprocshared=4
# opt freq B3LYP/6-31G(d) empiricaldispersion=gd3bj scf=xqc

CID_79321883_JID_9162_neutraal

0 1
C         -2.55700       -0.42200       -0.01100
C         -1.25217        0.06610       -0.53100
C         -0.32112       -0.66267       -1.25341
S          0.94895        0.38779       -1.72909
C          0.26039        1.69085       -0.81846
N         -0.89999        1.38103       -0.27752
N          0.83405        2.93731       -0.71435
C          0.14630        3.86137        0.20287
C          0.58022        5.30340       -0.05068
C          2.09483        5.44638        0.01261
C          2.75032        4.47345       -0.95809
C          2.30015        3.03561       -0.70165
C         -0.36941       -2.00317       -1.71279
C          0.27607       -3.05331       -1.15873
C          0.06561       -4.41766       -1.79269
N          1.30230       -4.94860       -2.34371
C          1.16510       -3.07730        0.09196
C          2.61149       -2.66454       -0.19730
C          0.62412       -2.31205        1.30378
H         -3.10380        0.38253        0.49100
H         -3.18108       -0.79462       -0.82932
H         -2.40758       -1.23039        0.71057
H          0.36250        3.58199        1.24227
H         -0.94173        3.81979        0.06611
H          0.11322        5.96557        0.68694
H          0.22717        5.62257       -1.03943
H          2.38415        6.47359       -0.23492
H          2.44529        5.24698        1.03248
H          2.49128        4.75836       -1.98576
H          3.84061        4.54039       -0.87137
H          2.76030        2.41766       -1.48010
H          2.68520        2.68929        0.26608
H         -0.99548       -2.16229       -2.58890
H         -0.32570       -5.11059       -1.03870
H         -0.68478       -4.37982       -2.59123
H          1.11024       -5.83653       -2.80328
H          1.63575       -4.31822       -3.07180
H          1.20612       -4.12383        0.42725
H          2.69898       -1.59653       -0.41016
H          3.24669       -2.87483        0.67068
H          3.02946       -3.21155       -1.04770
H         -0.43437       -2.53369        1.47284
H          1.16825       -2.60947        2.20792
H          0.74903       -1.23046        1.20612

--Link1--
%chk=JID_9162.chk
%mem=8GB
%nprocshared=4
# B3LYP/6-311++G(d,p) empiricaldispersion=gd3bj scf=xqc pop=npa geom=check

CID_79321883_JID_9162_Energie_neutraal

0 1

--Link1--
%chk=JID_9162.chk
%mem=8GB
%nprocshared=4
# B3LYP/6-311++G(d,p) empiricaldispersion=gd3bj scf=xqc pop=npa geom=check

CID_79321883_JID_9162_Energie_kation

1 2

--Link1--
%chk=JID_9162.chk
%mem=8GB
%nprocshared=4
# B3LYP/6-311++G(d,p) empiricaldispersion=gd3bj scf=xqc pop=npa geom=check

CID_79321883_JID_9162_Energie_anion

-1 2
