%chk=JID_10443.chk
%mem=8GB
%nprocshared=4
# opt freq B3LYP/6-31G(d) empiricaldispersion=gd3bj scf=xqc

CID_107710578_JID_10443_neutraal

0 1
C          0.94587        0.07002       -0.04655
C          0.73722        1.58736       -0.13578
C          1.21921        2.30851       -1.39976
C          0.81976        3.64536       -1.62968
C          1.28091        4.39456       -2.71230
C          2.16465        3.82517       -3.61769
C          2.58773        2.51352       -3.42711
C          2.12779        1.77204       -2.32799
O          2.60586        0.50054       -2.17933
O         -0.06042        4.29562       -0.80263
N         -0.71458        1.86344        0.01977
C         -1.35417        1.71782        1.25553
C         -2.73419        1.51041        1.27596
C         -3.44811        1.42710        2.48310
C         -2.82685        1.56983        3.73231
C         -1.45228        1.84710        3.69013
C         -0.73353        1.92899        2.48336
N         -3.54433        1.49840        4.93151
C         -4.82563        0.79388        4.93577
C         -2.81880        1.49722        6.19968
H          0.50743       -0.44776       -0.90703
H          0.47915       -0.34758        0.85245
H          2.00852       -0.18345        0.01818
H          1.30361        2.05290        0.67945
H          0.94215        5.41868       -2.84337
H          2.52450        4.40280       -4.46434
H          3.28632        2.08521       -4.14036
H          3.22386        0.30162       -2.90218
H         -0.51235        3.60183       -0.27063
H         -1.23687        1.39480       -0.72213
H         -3.28666        1.41034        0.34478
H         -4.51875        1.26568        2.40707
H         -0.88843        2.01877        4.60177
H          0.32105        2.17553        2.54893
H         -4.71002       -0.23717        4.58327
H         -5.25308        0.75003        5.94394
H         -5.56599        1.31316        4.31821
H         -2.17359        0.61585        6.28378
H         -2.21865        2.40630        6.31513
H         -3.50995        1.48572        7.05010

--Link1--
%chk=JID_10443.chk
%mem=8GB
%nprocshared=4
# B3LYP/6-311++G(d,p) empiricaldispersion=gd3bj scf=xqc pop=npa geom=check

CID_107710578_JID_10443_Energie_neutraal

0 1

--Link1--
%chk=JID_10443.chk
%mem=8GB
%nprocshared=4
# B3LYP/6-311++G(d,p) empiricaldispersion=gd3bj scf=xqc pop=npa geom=check

CID_107710578_JID_10443_Energie_kation

1 2

--Link1--
%chk=JID_10443.chk
%mem=8GB
%nprocshared=4
# B3LYP/6-311++G(d,p) empiricaldispersion=gd3bj scf=xqc pop=npa geom=check

CID_107710578_JID_10443_Energie_anion

-1 2
