%chk=JID_6115.chk
%mem=8GB
%nprocshared=4
# opt freq B3LYP/6-31G(d) empiricaldispersion=gd3bj scf=xqc

CID_105806361_JID_6115_neutraal

0 1
C          0.96193        0.04225        0.08225
C          0.14919        0.19955        1.36287
C          0.67544        1.32273        2.28246
C          0.53761        2.65908        1.62138
C         -0.54041        3.41783        1.20663
C         -0.00619        4.58807        0.61699
C          1.36052        4.46911        0.70116
O          1.70077        3.30342        1.30780
N         -0.08580        1.24339        3.53665
C          0.56632        1.83660        4.69331
C         -0.02262        3.16161        5.16544
C          0.94206        4.03015        5.96749
C          0.54708        4.44777        4.58770
C         -1.47748        3.18847        5.67446
C         -2.51496        3.36555        4.56452
C         -1.82644        1.99191        6.55879
H          0.88611        0.92799       -0.55558
H          0.59306       -0.81335       -0.49260
H          2.01872       -0.13259        0.30770
H         -0.90199        0.37183        1.09659
H          0.18514       -0.75699        1.90121
H          1.73457        1.11156        2.47957
H         -1.58250        3.15289        1.31546
H         -0.54874        5.41459        0.18082
H          2.18753        5.09370        0.39389
H         -1.01469        1.61833        3.40073
H          0.49497        1.11856        5.51830
H          1.64541        1.94346        4.52023
H          0.56750        4.61602        6.79986
H          1.96013        3.68593        6.11835
H          1.31025        4.39134        3.82019
H         -0.10350        5.30854        4.48359
H         -1.58271        4.07714        6.31302
H         -2.22298        4.15192        3.86216
H         -2.68656        2.44706        3.99844
H         -3.48099        3.65061        4.99685
H         -2.81315        2.12509        7.01543
H         -1.85154        1.05820        5.98763
H         -1.09535        1.87606        7.36581

--Link1--
%chk=JID_6115.chk
%mem=8GB
%nprocshared=4
# B3LYP/6-311++G(d,p) empiricaldispersion=gd3bj scf=xqc pop=npa geom=check

CID_105806361_JID_6115_Energie_neutraal

0 1

--Link1--
%chk=JID_6115.chk
%mem=8GB
%nprocshared=4
# B3LYP/6-311++G(d,p) empiricaldispersion=gd3bj scf=xqc pop=npa geom=check

CID_105806361_JID_6115_Energie_kation

1 2

--Link1--
%chk=JID_6115.chk
%mem=8GB
%nprocshared=4
# B3LYP/6-311++G(d,p) empiricaldispersion=gd3bj scf=xqc pop=npa geom=check

CID_105806361_JID_6115_Energie_anion

-1 2
