%chk=JID_7916.chk
%mem=8GB
%nprocshared=4
# opt freq B3LYP/6-31G(d) empiricaldispersion=gd3bj scf=xqc

CID_11207104_JID_7916_neutraal

0 1
C          1.08583       -0.01804        0.04804
C          0.57999       -0.17617        1.49399
C          1.06220        1.04445        2.30531
C         -0.96094       -0.16501        1.49457
C          1.09033       -1.49267        2.06820
C          1.90256       -1.68203        3.14191
C          2.02427       -3.07028        3.33258
N          2.50821       -3.97946        4.13299
N          2.08236       -5.20789        3.62565
C          1.36422       -5.00293        2.52350
N          1.30776       -3.65390        2.33832
N          0.70500       -2.73854        1.49045
C          0.65477       -6.04087        1.68817
C         -0.82111       -6.09443        2.13159
C          0.71910       -5.70545        0.18617
C          1.27915       -7.44414        1.92852
O          2.56530       -7.59335        1.33082
H          0.74148        0.92586       -0.39030
H          0.72630       -0.82765       -0.59772
H          2.18148       -0.02278        0.00774
H          0.68235        1.97888        1.87544
H          0.71402        0.99899        3.34390
H          2.15617        1.11398        2.31671
H         -1.37514       -0.94510        0.84570
H         -1.35893       -0.32344        2.50375
H         -1.34903        0.79379        1.13135
H          2.34848       -0.94138        3.78583
H         -0.30729       -2.83551        1.48423
H         -1.32007       -5.12882        1.98788
H         -1.38019       -6.84311        1.55888
H         -0.90854       -6.35162        3.19403
H          1.74545       -5.50331       -0.14111
H          0.33012       -6.53473       -0.41630
H          0.11710       -4.82543       -0.06361
H          1.38210       -7.65886        2.99834
H          0.63789       -8.22921        1.50954
H          2.44840       -7.69794        0.37264

--Link1--
%chk=JID_7916.chk
%mem=8GB
%nprocshared=4
# B3LYP/6-311++G(d,p) empiricaldispersion=gd3bj scf=xqc pop=npa geom=check

CID_11207104_JID_7916_Energie_neutraal

0 1

--Link1--
%chk=JID_7916.chk
%mem=8GB
%nprocshared=4
# B3LYP/6-311++G(d,p) empiricaldispersion=gd3bj scf=xqc pop=npa geom=check

CID_11207104_JID_7916_Energie_kation

1 2

--Link1--
%chk=JID_7916.chk
%mem=8GB
%nprocshared=4
# B3LYP/6-311++G(d,p) empiricaldispersion=gd3bj scf=xqc pop=npa geom=check

CID_11207104_JID_7916_Energie_anion

-1 2
