%chk=JID_5551.chk
%mem=8GB
%nprocshared=4
# opt freq B3LYP/6-31G(d) empiricaldispersion=gd3bj scf=xqc

CID_114411262_JID_5551_neutraal

0 1
C         -0.77200       -1.26700        0.18100
C          0.33513       -0.85886       -0.79837
N          1.51769       -0.36036       -0.04426
C          1.21873        0.86287        0.74808
C         -0.08053        0.71628        1.49198
C         -0.98389       -0.24738        1.25879
S          2.97903       -0.30238       -0.89447
O          2.70586       -0.60566       -2.28419
O          3.64962        0.93371       -0.54146
C          3.96492       -1.64383       -0.20136
C          3.55448       -3.03745       -0.68019
C          2.49873       -3.69874        0.19502
N          2.88326       -3.67005        1.60177
C          3.02468       -2.29903        2.08383
C          4.11899       -1.56163        1.31951
H         -1.70426       -1.41419       -0.37550
H         -0.52472       -2.22199        0.65830
H         -0.02517       -0.07094       -1.47181
H          0.59485       -1.72983       -1.40827
H          2.01244        1.01433        1.48770
H          1.15804        1.74076        0.09543
H         -0.27323        1.44961        2.27106
H         -1.89198       -0.30634        1.85157
H          4.95284       -1.43668       -0.63871
H          3.21449       -3.02576       -1.72103
H          4.44956       -3.67480       -0.66280
H          1.52102       -3.23414        0.05921
H          2.38805       -4.74378       -0.11614
H          2.17009       -4.14625        2.15524
H          3.29832       -2.32985        3.14466
H          2.06654       -1.77529        2.03146
H          5.08158       -2.01972        1.58595
H          4.17179       -0.52240        1.66199

--Link1--
%chk=JID_5551.chk
%mem=8GB
%nprocshared=4
# B3LYP/6-311++G(d,p) empiricaldispersion=gd3bj scf=xqc pop=npa geom=check

CID_114411262_JID_5551_Energie_neutraal

0 1

--Link1--
%chk=JID_5551.chk
%mem=8GB
%nprocshared=4
# B3LYP/6-311++G(d,p) empiricaldispersion=gd3bj scf=xqc pop=npa geom=check

CID_114411262_JID_5551_Energie_kation

1 2

--Link1--
%chk=JID_5551.chk
%mem=8GB
%nprocshared=4
# B3LYP/6-311++G(d,p) empiricaldispersion=gd3bj scf=xqc pop=npa geom=check

CID_114411262_JID_5551_Energie_anion

-1 2
