%chk=JID_4672.chk
%mem=8GB
%nprocshared=4
# opt freq B3LYP/6-31G(d) empiricaldispersion=gd3bj scf=xqc

CID_115699077_JID_4672_neutraal

0 1
C          0.93775        0.00992       -0.07763
C          1.10002        0.33043       -1.55959
C          1.21467       -0.86810       -2.55023
C          0.30078       -2.04051       -2.13673
C          0.69447       -0.38800       -3.95486
C          1.44469        0.79300       -4.58034
O          2.78845        0.45129       -4.88954
N          2.59845       -1.33510       -2.79195
C          3.49650       -1.60593       -1.67410
C          3.26721       -2.95226       -1.08186
C          3.02290       -3.24528        0.24633
O          2.88316       -4.58114        0.43466
C          3.05632       -5.16932       -0.77457
C          3.30677       -4.22024       -1.73682
H         -0.00363       -0.51361        0.11513
H          0.90931        0.94209        0.49716
H          1.75402       -0.59104        0.32039
H          0.22927        0.94019       -1.83686
H          1.96815        0.99160       -1.67990
H         -0.74538       -1.71670       -2.08179
H          0.34777       -2.85998       -2.86392
H          0.56049       -2.45517       -1.15985
H          0.73798       -1.23153       -4.65850
H         -0.36452       -0.10988       -3.87032
H          0.95664        1.08526       -5.51554
H          1.44844        1.66845       -3.92504
H          3.11037       -0.07055       -4.12365
H          2.57705       -2.15357       -3.40333
H          4.51828       -1.59849       -2.07518
H          3.48646       -0.80987       -0.92623
H          2.92140       -2.64102        1.13736
H          2.98030       -6.24767       -0.78533
H          3.49480       -4.41591       -2.78321

--Link1--
%chk=JID_4672.chk
%mem=8GB
%nprocshared=4
# B3LYP/6-311++G(d,p) empiricaldispersion=gd3bj scf=xqc pop=npa geom=check

CID_115699077_JID_4672_Energie_neutraal

0 1

--Link1--
%chk=JID_4672.chk
%mem=8GB
%nprocshared=4
# B3LYP/6-311++G(d,p) empiricaldispersion=gd3bj scf=xqc pop=npa geom=check

CID_115699077_JID_4672_Energie_kation

1 2

--Link1--
%chk=JID_4672.chk
%mem=8GB
%nprocshared=4
# B3LYP/6-311++G(d,p) empiricaldispersion=gd3bj scf=xqc pop=npa geom=check

CID_115699077_JID_4672_Energie_anion

-1 2
