%chk=JID_8145.chk
%mem=8GB
%nprocshared=4
# opt freq B3LYP/6-31G(d) empiricaldispersion=gd3bj scf=xqc

CID_65990332_JID_8145_neutraal

0 1
C          0.92362       -0.05510        0.03363
S          0.36591        1.37471       -0.93222
C          1.15502        2.78699        0.00380
C          0.24373        3.18646        1.17504
C          0.69148        4.49652        1.82716
N          0.89270        5.57435        0.85880
C          1.70102        5.24263       -0.31307
C          1.23820        3.95647       -0.98908
C          0.78296        6.87870        1.34893
O          0.40701        7.11127        2.50192
C          1.11540        8.04950        0.44022
C          2.56934        8.47196        0.60035
C          2.82632        9.89045        0.11397
C          4.30793        9.85336       -0.16555
C          4.48893        8.46357       -0.73581
O          3.43938        7.64595       -0.19670
C          2.51169        2.43236        0.48642
N          3.56596        2.15425        0.88385
H          0.37522       -0.93934       -0.30319
H          0.72100        0.08585        1.09816
H          1.98836       -0.24030       -0.12772
H         -0.78576        3.32772        0.81702
H          0.21013        2.40329        1.94308
H          1.63472        4.36329        2.37066
H         -0.06102        4.79277        2.56731
H          2.74106        5.15613        0.02090
H          1.66220        6.03884       -1.05708
H          1.92353        3.72803       -1.81608
H          0.25050        4.14875       -1.43195
H          0.85117        7.83065       -0.59733
H          0.45473        8.86977        0.75112
H          2.89562        8.36979        1.64322
H          2.28272       10.08826       -0.81822
H          2.54300       10.65063        0.84695
H          4.64860       10.63899       -0.84508
H          4.86735        9.94817        0.77257
H          4.38207        8.46241       -1.82546
H          5.46002        8.02953       -0.48095

--Link1--
%chk=JID_8145.chk
%mem=8GB
%nprocshared=4
# B3LYP/6-311++G(d,p) empiricaldispersion=gd3bj scf=xqc pop=npa geom=check

CID_65990332_JID_8145_Energie_neutraal

0 1

--Link1--
%chk=JID_8145.chk
%mem=8GB
%nprocshared=4
# B3LYP/6-311++G(d,p) empiricaldispersion=gd3bj scf=xqc pop=npa geom=check

CID_65990332_JID_8145_Energie_kation

1 2

--Link1--
%chk=JID_8145.chk
%mem=8GB
%nprocshared=4
# B3LYP/6-311++G(d,p) empiricaldispersion=gd3bj scf=xqc pop=npa geom=check

CID_65990332_JID_8145_Energie_anion

-1 2
