%chk=JID_9713.chk
%mem=8GB
%nprocshared=4
# opt freq B3LYP/6-31G(d) empiricaldispersion=gd3bj scf=xqc

CID_144950321_JID_9713_neutraal

0 1
C          1.00680       -0.04892       -0.08695
C         -0.31090       -0.52760        0.45048
C         -1.14962        0.31097        1.08390
C         -0.65107       -1.99410        0.26621
C         -0.53262       -2.53603       -1.14613
C         -1.27027       -2.00682       -2.22221
C         -1.18116       -2.58976       -3.50200
C         -0.33064       -3.69542       -3.72616
C         -0.28791       -4.27686       -5.00232
C         -1.09020       -3.78481       -6.03196
C         -1.92676       -2.69205       -5.80446
C         -1.94752       -2.06337       -4.55540
N         -2.83006       -0.98559       -4.32734
C         -2.49629       -0.16059       -3.17029
N         -2.23725       -0.98664       -1.99321
C         -1.30741        0.77148       -3.46566
C         -3.72254        0.71443       -2.85664
C          0.42853       -4.19204       -2.65991
C          0.32675       -3.62178       -1.38816
H          1.20345        0.99507        0.17996
H          1.03332       -0.11872       -1.17861
H          1.82424       -0.65202        0.32155
H         -2.10457       -0.03103        1.47054
H         -0.91080        1.36078        1.21881
H          0.01241       -2.56365        0.93113
H         -1.66872       -2.20894        0.61864
H          0.35431       -5.13314       -5.19632
H         -1.07097       -4.25856       -7.00972
H         -2.55995       -2.33140       -6.60991
H         -2.97153       -0.43933       -5.17041
H         -3.09997       -1.48510       -1.78052
H         -1.52531        1.43053       -4.31406
H         -1.07617        1.40063       -2.59815
H         -0.39285        0.22273       -3.71629
H         -4.60708        0.10032       -2.64890
H         -3.54610        1.34395       -1.97648
H         -3.97062        1.37008       -3.69934
H          1.09279       -5.04125       -2.80503
H          0.91590       -4.04512       -0.57737

--Link1--
%chk=JID_9713.chk
%mem=8GB
%nprocshared=4
# B3LYP/6-311++G(d,p) empiricaldispersion=gd3bj scf=xqc pop=npa geom=check

CID_144950321_JID_9713_Energie_neutraal

0 1

--Link1--
%chk=JID_9713.chk
%mem=8GB
%nprocshared=4
# B3LYP/6-311++G(d,p) empiricaldispersion=gd3bj scf=xqc pop=npa geom=check

CID_144950321_JID_9713_Energie_kation

1 2

--Link1--
%chk=JID_9713.chk
%mem=8GB
%nprocshared=4
# B3LYP/6-311++G(d,p) empiricaldispersion=gd3bj scf=xqc pop=npa geom=check

CID_144950321_JID_9713_Energie_anion

-1 2
