%chk=JID_8021.chk
%mem=8GB
%nprocshared=4
# opt freq B3LYP/6-31G(d) empiricaldispersion=gd3bj scf=xqc

CID_113418874_JID_8021_neutraal

0 1
C          0.94392        0.00284       -0.08274
C          0.75725       -1.39326       -0.64666
C          0.75005       -2.52214        0.38880
C         -0.33564       -2.54687        1.47135
C         -1.76136       -2.19898        1.04985
C         -2.34077       -1.44521        2.24455
N         -1.39499       -1.68825        3.34573
C         -0.08123       -1.66219        2.69075
C         -1.54545       -0.69858        4.41823
C         -1.45086       -1.17254        5.90037
C         -2.59352       -2.11722        6.33742
C         -2.73389       -3.46100        5.62807
C         -1.65477       -4.49064        5.92995
C         -0.22081       -4.02960        5.70130
C          0.24822       -3.02777        6.74599
C         -0.06351       -1.53823        6.50145
N          1.03083       -0.83650        5.80682
C          2.08801       -0.39518        6.70806
H          0.04879        0.34066        0.44643
H          1.12499        0.71341       -0.89604
H          1.79949        0.04564        0.59807
H         -0.15223       -1.42528       -1.25609
H          1.58475       -1.58873       -1.34086
H          0.66190       -3.45912       -0.17824
H          1.73329       -2.56394        0.87499
H         -0.35862       -3.58362        1.84453
H         -2.32776       -3.11545        0.84882
H         -1.81728       -1.57226        0.15671
H         -2.40277       -0.37708        1.99692
H         -3.34659       -1.80003        2.49170
H          0.70738       -2.09570        3.30702
H          0.21283       -0.64621        2.41507
H         -0.87655        0.15739        4.25707
H         -2.55184       -0.25996        4.33658
H         -1.69374       -0.23574        6.43385
H         -2.52676       -2.28763        7.41993
H         -3.53905       -1.57750        6.18813
H         -2.82684       -3.32928        4.54828
H         -3.69255       -3.89890        5.93774
H         -1.84034       -5.36929        5.29908
H         -1.76696       -4.83731        6.96516
H         -0.07764       -3.66129        4.68605
H          0.41718       -4.91908        5.78857
H          1.33247       -3.15307        6.86519
H         -0.16300       -3.31201        7.72453
H         -0.10291       -1.11231        7.51679
H          1.43324       -1.46380        5.11347
H          2.55240       -1.23007        7.24093
H          2.86926        0.10647        6.12829
H          1.70888        0.32893        7.43627

--Link1--
%chk=JID_8021.chk
%mem=8GB
%nprocshared=4
# B3LYP/6-311++G(d,p) empiricaldispersion=gd3bj scf=xqc pop=npa geom=check

CID_113418874_JID_8021_Energie_neutraal

0 1

--Link1--
%chk=JID_8021.chk
%mem=8GB
%nprocshared=4
# B3LYP/6-311++G(d,p) empiricaldispersion=gd3bj scf=xqc pop=npa geom=check

CID_113418874_JID_8021_Energie_kation

1 2

--Link1--
%chk=JID_8021.chk
%mem=8GB
%nprocshared=4
# B3LYP/6-311++G(d,p) empiricaldispersion=gd3bj scf=xqc pop=npa geom=check

CID_113418874_JID_8021_Energie_anion

-1 2
