%chk=JID_5826.chk
%mem=8GB
%nprocshared=4
# opt freq B3LYP/6-31G(d) empiricaldispersion=gd3bj scf=xqc

CID_13215957_JID_5826_neutraal

0 1
C          0.93846       -0.06554        0.04379
C          0.24196        1.26538        0.44668
C          0.48586        2.26085       -0.69558
C         -1.28894        0.93295        0.63782
O         -1.57092        0.41091        1.94011
C         -2.78065       -0.33332        1.97851
O         -2.21855        1.93227        0.20837
C         -2.41320        3.02241        1.08714
S          1.20866        1.71970        1.99404
C          0.69013        3.35912        2.42309
C          1.20032        4.47854        1.75919
C          0.83146        5.76585        2.15717
C         -0.03019        5.94206        3.23844
C         -0.51382        4.83274        3.92951
C         -0.14493        3.54624        3.52963
H          0.52802       -0.45046       -0.89819
H          0.79501       -0.84793        0.79933
H          2.01609        0.06275       -0.11917
H          0.04529        1.89065       -1.62910
H          0.04034        3.23948       -0.50325
H          1.55569        2.41000       -0.88266
H         -1.49133        0.11832       -0.07053
H         -3.63401        0.28674        1.68923
H         -2.71291       -1.20978        1.32682
H         -2.93653       -0.67832        3.00426
H         -2.54686        2.70037        2.12234
H         -1.59874        3.73810        0.99354
H         -3.32780        3.53844        0.77976
H          1.89783        4.35989        0.93405
H          1.22803        6.63031        1.63089
H         -0.31164        6.94400        3.55229
H         -1.17056        4.96671        4.78505
H         -0.51827        2.68764        4.08443

--Link1--
%chk=JID_5826.chk
%mem=8GB
%nprocshared=4
# B3LYP/6-311++G(d,p) empiricaldispersion=gd3bj scf=xqc pop=npa geom=check

CID_13215957_JID_5826_Energie_neutraal

0 1

--Link1--
%chk=JID_5826.chk
%mem=8GB
%nprocshared=4
# B3LYP/6-311++G(d,p) empiricaldispersion=gd3bj scf=xqc pop=npa geom=check

CID_13215957_JID_5826_Energie_kation

1 2

--Link1--
%chk=JID_5826.chk
%mem=8GB
%nprocshared=4
# B3LYP/6-311++G(d,p) empiricaldispersion=gd3bj scf=xqc pop=npa geom=check

CID_13215957_JID_5826_Energie_anion

-1 2
