%chk=JID_327.chk
%mem=8GB
%nprocshared=4
# opt freq B3LYP/6-31G(d) empiricaldispersion=gd3bj scf=xqc

CID_117125936_JID_327_neutraal

0 1
C          0.96710       -0.08701       -0.03670
S          0.09681        0.82116       -1.33257
C          1.10374        2.27264       -1.39511
O          2.03977        2.43169       -0.62200
C          0.68601        3.28305       -2.45709
C          1.90197        4.01395       -3.04141
C          2.42960        5.12461       -2.13381
N          1.36066        6.04034       -1.73835
C          0.30685        5.33763       -1.01044
C         -0.33941        4.26957       -1.88968
H          0.47263       -1.04918        0.12168
H          0.94671        0.47034        0.90382
H          2.00412       -0.27570       -0.32762
H          0.22144        2.72510       -3.28095
H          2.71040        3.30459       -3.25601
H          1.61071        4.45825       -4.00266
H          2.92376        4.71277       -1.24718
H          3.19313        5.69157       -2.67833
H          1.75435        6.76457       -1.13656
H         -0.45854        6.06286       -0.71260
H          0.70303        4.89819       -0.08735
H         -0.85390        4.76197       -2.72562
H         -1.11079        3.74624       -1.31272

--Link1--
%chk=JID_327.chk
%mem=8GB
%nprocshared=4
# B3LYP/6-311++G(d,p) empiricaldispersion=gd3bj scf=xqc pop=npa geom=check

CID_117125936_JID_327_Energie_neutraal

0 1

--Link1--
%chk=JID_327.chk
%mem=8GB
%nprocshared=4
# B3LYP/6-311++G(d,p) empiricaldispersion=gd3bj scf=xqc pop=npa geom=check

CID_117125936_JID_327_Energie_kation

1 2

--Link1--
%chk=JID_327.chk
%mem=8GB
%nprocshared=4
# B3LYP/6-311++G(d,p) empiricaldispersion=gd3bj scf=xqc pop=npa geom=check

CID_117125936_JID_327_Energie_anion

-1 2
