%chk=JID_7070.chk
%mem=8GB
%nprocshared=4
# opt freq B3LYP/6-31G(d) empiricaldispersion=gd3bj scf=xqc

CID_114516898_JID_7070_neutraal

0 1
C         -2.38400        0.00700       -0.11600
N         -0.96876        0.25017        0.16013
C         -0.18174       -0.96925       -0.06019
C          1.28935       -0.73757        0.29174
C          1.91141        0.43525       -0.48708
C          0.99884        1.66383       -0.34168
C         -0.46914        1.36273       -0.65545
C          2.17671        0.04290       -1.95647
C          3.07187        1.01707       -2.73912
N          4.45456        1.05325       -2.27507
C          5.04983        2.08157       -1.54040
C          6.32377        1.74055       -1.28266
N          6.58336        0.52071       -1.84327
C          5.43491        0.05082       -2.49597
S          5.36474       -1.37329       -3.33239
C          4.37617        3.35135       -1.14274
O          3.94756        4.07871       -2.28872
H         -2.55917       -0.27832       -1.15965
H         -2.77095       -0.78982        0.52889
H         -2.97793        0.90169        0.10154
H         -0.56044       -1.77344        0.58266
H         -0.27290       -1.31708       -1.09698
H          1.85948       -1.65800        0.11792
H          1.36696       -0.52716        1.36705
H          2.87603        0.66092       -0.01680
H          1.33788        2.48701       -0.97737
H          1.06849        2.02773        0.69250
H         -0.59092        1.15385       -1.72561
H         -1.05150        2.26689       -0.43873
H          2.63077       -0.95396       -1.97627
H          1.22766       -0.04984       -2.49679
H          3.09495        0.68997       -3.78565
H          2.64152        2.02038       -2.74507
H          7.08126        2.29109       -0.74527
H          7.46314        0.02364       -1.82151
H          3.51207        3.15879       -0.50369
H          5.05952        3.99704       -0.58108
H          4.58332        3.89321       -3.00174

--Link1--
%chk=JID_7070.chk
%mem=8GB
%nprocshared=4
# B3LYP/6-311++G(d,p) empiricaldispersion=gd3bj scf=xqc pop=npa geom=check

CID_114516898_JID_7070_Energie_neutraal

0 1

--Link1--
%chk=JID_7070.chk
%mem=8GB
%nprocshared=4
# B3LYP/6-311++G(d,p) empiricaldispersion=gd3bj scf=xqc pop=npa geom=check

CID_114516898_JID_7070_Energie_kation

1 2

--Link1--
%chk=JID_7070.chk
%mem=8GB
%nprocshared=4
# B3LYP/6-311++G(d,p) empiricaldispersion=gd3bj scf=xqc pop=npa geom=check

CID_114516898_JID_7070_Energie_anion

-1 2
