%chk=JID_10465.chk
%mem=8GB
%nprocshared=4
# opt freq B3LYP/6-31G(d) empiricaldispersion=gd3bj scf=xqc

CID_66700342_JID_10465_neutraal

0 1
C          1.04345       -0.08886        0.01472
C          0.53085        0.67835        1.20246
N         -0.39364        1.57651        1.04447
N         -0.75363        2.24295        2.21259
C         -1.50605        3.31014        2.06771
C         -1.79198        3.97367        3.39924
C         -2.57109        5.06439        3.43337
C         -3.13805        5.61506        2.22653
C         -2.86618        5.03624        1.04950
N         -2.06264        3.90377        0.91065
C         -1.81395        3.37046       -0.42578
N          1.06773        0.36582        2.43394
N          0.62345       -0.73073        2.84093
C          0.97810       -0.91070        4.18503
C          2.21454       -1.45424        4.54602
C          2.52971       -1.62924        5.88734
C          1.60193       -1.26326        6.85113
C          0.37760       -0.73687        6.45606
N          0.07755       -0.58071        5.14680
C         -1.22687       -0.00356        4.77314
H          0.82067        0.45059       -0.90998
H          0.55887       -1.06854       -0.01962
H          2.12494       -0.22662        0.09845
H         -1.33998        3.55689        4.28689
H         -2.78443        5.57060        4.36928
H         -3.76596        6.49731        2.29258
H         -3.27304        5.43919        0.12613
H         -2.20528        2.35208       -0.51713
H         -2.30983        3.96453       -1.20278
H         -0.74431        3.38920       -0.65895
H          2.93099       -1.73035        3.77558
H          3.49427       -2.04369        6.17769
H          1.83178       -1.38573        7.90805
H         -0.36994       -0.43500        7.18488
H         -1.93773       -0.16737        5.58801
H         -1.07796        1.06563        4.61911
H         -1.61158       -0.49650        3.87772

--Link1--
%chk=JID_10465.chk
%mem=8GB
%nprocshared=4
# B3LYP/6-311++G(d,p) empiricaldispersion=gd3bj scf=xqc pop=npa geom=check

CID_66700342_JID_10465_Energie_neutraal

0 1

--Link1--
%chk=JID_10465.chk
%mem=8GB
%nprocshared=4
# B3LYP/6-311++G(d,p) empiricaldispersion=gd3bj scf=xqc pop=npa geom=check

CID_66700342_JID_10465_Energie_kation

1 2

--Link1--
%chk=JID_10465.chk
%mem=8GB
%nprocshared=4
# B3LYP/6-311++G(d,p) empiricaldispersion=gd3bj scf=xqc pop=npa geom=check

CID_66700342_JID_10465_Energie_anion

-1 2
