%chk=JID_7284.chk
%mem=8GB
%nprocshared=4
# opt freq B3LYP/6-31G(d) empiricaldispersion=gd3bj scf=xqc

CID_43511289_JID_7284_neutraal

0 1
C          0.93008        0.04427       -0.05614
C          0.22157       -0.96877       -0.90469
O         -0.69506       -1.64420       -0.42625
N          0.53491       -1.15661       -2.21614
C          1.53925       -0.66029       -3.06773
C          1.39162       -0.95180       -4.42629
C          2.32094       -0.48916       -5.35379
C          3.42510        0.25298       -4.93036
C          3.64398        0.51587       -3.57910
C          2.66492        0.06546       -2.66595
N          4.68883        1.27977       -3.07736
C          5.87104        1.78321       -3.78585
C          5.52331        2.91361       -4.75903
C          6.76340        3.57682       -5.34326
S          7.79574        2.39320       -6.25467
C          8.04807        1.17067       -4.93650
C          6.72697        0.65966       -4.37682
H          0.34491        0.21700        0.85331
H          1.00616        1.00260       -0.57479
H          1.91022       -0.33454        0.24170
H         -0.12650       -1.79762       -2.64102
H          0.53881       -1.52175       -4.78707
H          2.18465       -0.69900       -6.41174
H          4.11094        0.59756       -5.69479
H          2.83778        0.28671       -1.62235
H          4.88245        1.07516       -2.09955
H          6.48306        2.24884       -2.99947
H          4.88543        2.56667       -5.57722
H          4.93740        3.67638       -4.22967
H          6.46662        4.37310       -6.03343
H          7.36681        4.03855       -4.55444
H          8.65706        1.62274       -4.14638
H          8.62166        0.33547       -5.35114
H          6.94218       -0.07983       -3.59457
H          6.19339        0.11511       -5.16244

--Link1--
%chk=JID_7284.chk
%mem=8GB
%nprocshared=4
# B3LYP/6-311++G(d,p) empiricaldispersion=gd3bj scf=xqc pop=npa geom=check

CID_43511289_JID_7284_Energie_neutraal

0 1

--Link1--
%chk=JID_7284.chk
%mem=8GB
%nprocshared=4
# B3LYP/6-311++G(d,p) empiricaldispersion=gd3bj scf=xqc pop=npa geom=check

CID_43511289_JID_7284_Energie_kation

1 2

--Link1--
%chk=JID_7284.chk
%mem=8GB
%nprocshared=4
# B3LYP/6-311++G(d,p) empiricaldispersion=gd3bj scf=xqc pop=npa geom=check

CID_43511289_JID_7284_Energie_anion

-1 2
