%chk=JID_6647.chk
%mem=8GB
%nprocshared=4
# opt freq B3LYP/6-31G(d) empiricaldispersion=gd3bj scf=xqc

CID_149010180_JID_6647_neutraal

0 1
C          1.03339       -0.09412        0.00517
N          1.54651       -0.94421       -1.04839
C          0.89380       -1.90349       -1.76312
S          1.48691       -2.15603       -3.31068
N         -0.16386       -2.57804       -1.17920
C         -0.22778       -2.79981        0.26515
C         -1.17680       -3.32004       -1.97042
C         -2.58712       -2.74409       -1.84131
N         -2.81835       -1.63802       -2.74315
C         -2.50798       -0.32415       -2.56809
C         -2.97455        0.28311       -3.71595
N         -3.57298       -0.66456       -4.50728
N         -3.47897       -1.83682       -3.89504
C         -2.92536        1.71150       -4.12609
O         -1.84943        2.03255       -5.01622
C         -0.57725        2.01788       -4.38530
H         -0.05778       -0.06406       -0.01138
H          1.41994        0.91565       -0.15803
H          1.40013       -0.45831        0.96723
H          2.33760       -0.56669       -1.55981
H         -0.98180       -2.13644        0.69640
H         -0.51023       -3.83820        0.46501
H          0.74111       -2.63233        0.74054
H         -0.90515       -3.37242       -3.02752
H         -1.16982       -4.35287       -1.60127
H         -3.32274       -3.51813       -2.09107
H         -2.80847       -2.39650       -0.82706
H         -1.98992        0.04774       -1.69809
H         -3.85281        1.95496       -4.65674
H         -2.88518        2.37027       -3.25037
H         -0.56659        2.68537       -3.51816
H         -0.30003        1.00368       -4.08613
H          0.16456        2.37474       -5.10506

--Link1--
%chk=JID_6647.chk
%mem=8GB
%nprocshared=4
# B3LYP/6-311++G(d,p) empiricaldispersion=gd3bj scf=xqc pop=npa geom=check

CID_149010180_JID_6647_Energie_neutraal

0 1

--Link1--
%chk=JID_6647.chk
%mem=8GB
%nprocshared=4
# B3LYP/6-311++G(d,p) empiricaldispersion=gd3bj scf=xqc pop=npa geom=check

CID_149010180_JID_6647_Energie_kation

1 2

--Link1--
%chk=JID_6647.chk
%mem=8GB
%nprocshared=4
# B3LYP/6-311++G(d,p) empiricaldispersion=gd3bj scf=xqc pop=npa geom=check

CID_149010180_JID_6647_Energie_anion

-1 2
