%chk=JID_8050.chk
%mem=8GB
%nprocshared=4
# opt freq B3LYP/6-31G(d) empiricaldispersion=gd3bj scf=xqc

CID_113510986_JID_8050_neutraal

0 1
C          0.99604        0.07352       -0.06767
C          0.33433       -0.25797        1.26310
C          0.95001        0.48658        2.46973
C          0.92227        2.02467        2.32324
C         -0.46490        2.63550        2.17800
C          0.26372        0.05326        3.78742
N          0.65189       -1.30558        4.17289
C          1.50871       -1.39712        5.26956
C          1.15765       -0.91038        6.52284
C          2.04776       -1.05110        7.58983
C          3.26729       -1.68791        7.34982
C          3.54524       -2.16486        6.07241
N          2.67522       -2.02542        5.04081
C          4.84982       -2.88618        5.79644
C          4.59054       -4.35061        5.44074
C          5.63726       -2.18746        4.68683
C          1.70344       -0.53346        8.95912
N          1.68861       -1.60608        9.94620
H          0.80787        1.10911       -0.36485
H          0.59504       -0.57197       -0.85590
H          2.07789       -0.08476       -0.01870
H         -0.73959       -0.04991        1.19151
H          0.42507       -1.33956        1.41830
H          2.01012        0.20166        2.52948
H          1.40786        2.47232        3.19985
H          1.53277        2.32485        1.46380
H         -1.09882        2.40365        3.03866
H         -0.38533        3.72547        2.10945
H         -0.96679        2.28482        1.27189
H          0.49250        0.78060        4.57616
H         -0.82537        0.06653        3.66250
H          1.16792       -1.78671        3.43619
H          0.18820       -0.44602        6.66661
H          3.97687       -1.82411        8.16117
H          5.46931       -2.86662        6.70239
H          4.00172       -4.44714        4.52158
H          5.53478       -4.88534        5.29202
H          4.04078       -4.85672        6.24222
H          5.82851       -1.13946        4.94325
H          6.60467       -2.67753        4.53294
H          5.09843       -2.20379        3.73278
H          2.43714        0.22672        9.25003
H          0.72258       -0.04449        8.94875
H          1.34510       -1.23989       10.83177
H          1.01723       -2.31427        9.65008

--Link1--
%chk=JID_8050.chk
%mem=8GB
%nprocshared=4
# B3LYP/6-311++G(d,p) empiricaldispersion=gd3bj scf=xqc pop=npa geom=check

CID_113510986_JID_8050_Energie_neutraal

0 1

--Link1--
%chk=JID_8050.chk
%mem=8GB
%nprocshared=4
# B3LYP/6-311++G(d,p) empiricaldispersion=gd3bj scf=xqc pop=npa geom=check

CID_113510986_JID_8050_Energie_kation

1 2

--Link1--
%chk=JID_8050.chk
%mem=8GB
%nprocshared=4
# B3LYP/6-311++G(d,p) empiricaldispersion=gd3bj scf=xqc pop=npa geom=check

CID_113510986_JID_8050_Energie_anion

-1 2
