%chk=JID_7176.chk
%mem=8GB
%nprocshared=4
# opt freq B3LYP/6-31G(d) empiricaldispersion=gd3bj scf=xqc

CID_114529330_JID_7176_neutraal

0 1
C          1.08655        0.00675        0.04964
C          1.21245       -0.92348        1.24961
C          2.53210       -0.69998        2.02151
C          2.21940       -0.43876        3.51430
N          1.71469       -1.64029        4.19063
C          2.72928       -2.69152        4.17082
C          3.10941       -3.07419        2.73900
C          3.56943       -1.86089        1.91077
C          4.01895       -2.19560        0.45502
C          3.52942       -3.49211       -0.21270
C          2.30337       -3.33395       -1.05011
N          2.16841       -2.46170       -2.03140
C          0.92602       -2.67439       -2.56379
C          0.29268       -3.70388       -1.91456
N          1.18158       -4.12850       -0.96541
C          0.95742       -5.22841       -0.06042
O          4.76699       -1.34715        2.55777
H          0.16239       -0.20498       -0.49717
H          1.92561       -0.10379       -0.64117
H          1.05157        1.05208        0.37399
H          0.34463       -0.72939        1.89209
H          1.11088       -1.96073        0.92932
H          3.01185        0.21796        1.65297
H          1.46506        0.35300        3.59752
H          3.10789       -0.06100        4.03598
H          1.50489       -1.40070        5.15990
H          2.32870       -3.57576        4.67915
H          3.61516       -2.37901        4.73702
H          2.24261       -3.55099        2.27102
H          3.91125       -3.82097        2.79189
H          3.83979       -1.33050       -0.19450
H          5.11576       -2.28394        0.46616
H          4.31769       -3.81667       -0.90716
H          3.44154       -4.30912        0.50628
H          0.55573       -2.07618       -3.38587
H         -0.68001       -4.15456       -2.05180
H          0.82522       -4.82696        0.94604
H          0.05675       -5.77033       -0.36118
H          1.81515       -5.90380       -0.10334
H          5.44129       -2.04759        2.55305

--Link1--
%chk=JID_7176.chk
%mem=8GB
%nprocshared=4
# B3LYP/6-311++G(d,p) empiricaldispersion=gd3bj scf=xqc pop=npa geom=check

CID_114529330_JID_7176_Energie_neutraal

0 1

--Link1--
%chk=JID_7176.chk
%mem=8GB
%nprocshared=4
# B3LYP/6-311++G(d,p) empiricaldispersion=gd3bj scf=xqc pop=npa geom=check

CID_114529330_JID_7176_Energie_kation

1 2

--Link1--
%chk=JID_7176.chk
%mem=8GB
%nprocshared=4
# B3LYP/6-311++G(d,p) empiricaldispersion=gd3bj scf=xqc pop=npa geom=check

CID_114529330_JID_7176_Energie_anion

-1 2
