%chk=JID_5815.chk
%mem=8GB
%nprocshared=4
# opt freq B3LYP/6-31G(d) empiricaldispersion=gd3bj scf=xqc

CID_39239787_JID_5815_neutraal

0 1
C          1.85400        1.50000       -0.02200
C          0.58494        0.69326       -0.06481
C          0.59687       -0.70911        0.05766
C         -0.61825       -1.41646       -0.00158
C         -1.84335       -0.75283       -0.15602
C         -1.84100        0.64001       -0.26410
C         -0.64187        1.35492       -0.21517
C         -3.09980       -1.49363       -0.21513
C         -4.25146       -1.28939       -0.95268
C         -5.12479       -2.33156       -0.58096
N         -4.58259       -3.13775        0.33964
N         -3.36604       -2.60334        0.54915
C         -6.44882       -2.58109       -1.07283
N         -7.51800       -2.75034       -1.49577
C          1.88371       -1.47808        0.19055
H          2.29684        1.45420        0.97785
H          2.57212        1.12453       -0.75799
H          1.66848        2.55323       -0.25845
H         -0.59281       -2.50314        0.05053
H         -2.77246        1.18942       -0.37859
H         -0.67433        2.43941       -0.30001
H         -4.42959       -0.50410       -1.67446
H         -2.76254       -3.03668        1.24039
H          1.70159       -2.50235        0.53327
H          2.39234       -1.52599       -0.77735
H          2.54528       -1.01073        0.92649

--Link1--
%chk=JID_5815.chk
%mem=8GB
%nprocshared=4
# B3LYP/6-311++G(d,p) empiricaldispersion=gd3bj scf=xqc pop=npa geom=check

CID_39239787_JID_5815_Energie_neutraal

0 1

--Link1--
%chk=JID_5815.chk
%mem=8GB
%nprocshared=4
# B3LYP/6-311++G(d,p) empiricaldispersion=gd3bj scf=xqc pop=npa geom=check

CID_39239787_JID_5815_Energie_kation

1 2

--Link1--
%chk=JID_5815.chk
%mem=8GB
%nprocshared=4
# B3LYP/6-311++G(d,p) empiricaldispersion=gd3bj scf=xqc pop=npa geom=check

CID_39239787_JID_5815_Energie_anion

-1 2
