%chk=JID_9846.chk
%mem=8GB
%nprocshared=4
# opt freq B3LYP/6-31G(d) empiricaldispersion=gd3bj scf=xqc

CID_26952445_JID_9846_neutraal

0 1
C          1.34400       -0.22500        0.03600
C          1.01208        1.07360       -0.35415
C         -0.29065        1.54620       -0.18345
C         -1.26823        0.73096        0.38351
C         -0.93090       -0.57229        0.75713
C          0.37216       -1.05336        0.59415
S         -2.15553       -1.63052        1.46307
O         -1.61735       -2.23485        2.65818
O         -3.43982       -0.97207        1.42450
N         -2.25771       -2.86053        0.32169
N         -0.59626        2.89791       -0.52991
S         -0.33453        4.05897        0.69048
O         -0.76915        5.32082        0.12777
O         -0.89068        3.56549        1.93068
C          1.42363        4.24996        0.90057
C          2.36362        4.91385        0.13235
C          3.68139        4.79603        0.66002
C          3.70496        4.04713        1.81526
S          2.14645        3.49417        2.25443
H          2.36082       -0.58815       -0.09406
H          1.77624        1.70892       -0.79480
H         -2.27530        1.10629        0.54669
H          0.63182       -2.06382        0.90221
H         -1.99189       -3.74771        0.75074
H         -3.19387       -2.86992       -0.08543
H         -1.55286        3.02837       -0.86328
H          2.10291        5.46141       -0.76616
H          4.56517        5.24136        0.21867
H          4.56143        3.79985        2.42819

--Link1--
%chk=JID_9846.chk
%mem=8GB
%nprocshared=4
# B3LYP/6-311++G(d,p) empiricaldispersion=gd3bj scf=xqc pop=npa geom=check

CID_26952445_JID_9846_Energie_neutraal

0 1

--Link1--
%chk=JID_9846.chk
%mem=8GB
%nprocshared=4
# B3LYP/6-311++G(d,p) empiricaldispersion=gd3bj scf=xqc pop=npa geom=check

CID_26952445_JID_9846_Energie_kation

1 2

--Link1--
%chk=JID_9846.chk
%mem=8GB
%nprocshared=4
# B3LYP/6-311++G(d,p) empiricaldispersion=gd3bj scf=xqc pop=npa geom=check

CID_26952445_JID_9846_Energie_anion

-1 2
