%chk=JID_10226.chk
%mem=8GB
%nprocshared=4
# opt freq B3LYP/6-31G(d) empiricaldispersion=gd3bj scf=xqc

CID_20382310_JID_10226_neutraal

0 1
C          0.94424        0.07720        0.03051
C          0.50483        0.91744       -1.17592
C          1.46942        0.69559       -2.34744
N         -0.92628        0.68994       -1.47191
C         -1.48410        1.75559       -2.31682
C         -3.00332        1.62880       -2.41773
C         -3.44076        0.24827       -2.95506
C         -2.72842       -0.84775       -2.14075
C         -1.21871       -0.62546       -2.05873
C         -4.98303        0.21688       -2.80034
O         -5.75567        0.60780       -3.67306
O         -5.37936       -0.22144       -1.57397
C         -6.79358       -0.21710       -1.37562
N         -3.08355        0.22164       -4.41962
C         -2.98080       -1.00781       -5.08749
C         -1.81580       -1.25742       -5.82230
C         -1.65906       -2.44172       -6.54503
C         -2.68240       -3.38478       -6.56019
C         -3.86243       -3.13448       -5.86367
C         -4.01470       -1.94682       -5.14107
H          0.98983       -0.99163       -0.20099
H          0.26179        0.21731        0.87618
H          1.94290        0.38284        0.36257
H          0.61429        1.96288       -0.85666
H          1.49619       -0.35206       -2.66432
H          1.20363        1.31055       -3.21245
H          2.48857        0.97307       -2.05522
H         -1.03971        1.74910       -3.31937
H         -1.26394        2.73536       -1.87519
H         -3.38859        2.43230       -3.05967
H         -3.43940        1.79958       -1.42334
H         -3.11371       -0.86548       -1.11213
H         -2.93257       -1.84786       -2.53813
H         -0.80895       -1.42470       -1.43206
H         -0.76520       -0.73265       -3.04987
H         -7.18973        0.79943       -1.46225
H         -7.28212       -0.88736       -2.08953
H         -6.99472       -0.58149       -0.36451
H         -3.80148        0.76297       -4.91747
H         -1.01523       -0.52133       -5.82214
H         -0.74148       -2.62123       -7.09829
H         -2.56647       -4.30620       -7.12435
H         -4.67253       -3.85856       -5.89070
H         -4.95982       -1.77072       -4.63812

--Link1--
%chk=JID_10226.chk
%mem=8GB
%nprocshared=4
# B3LYP/6-311++G(d,p) empiricaldispersion=gd3bj scf=xqc pop=npa geom=check

CID_20382310_JID_10226_Energie_neutraal

0 1

--Link1--
%chk=JID_10226.chk
%mem=8GB
%nprocshared=4
# B3LYP/6-311++G(d,p) empiricaldispersion=gd3bj scf=xqc pop=npa geom=check

CID_20382310_JID_10226_Energie_kation

1 2

--Link1--
%chk=JID_10226.chk
%mem=8GB
%nprocshared=4
# B3LYP/6-311++G(d,p) empiricaldispersion=gd3bj scf=xqc pop=npa geom=check

CID_20382310_JID_10226_Energie_anion

-1 2
