%chk=JID_3735.chk
%mem=8GB
%nprocshared=4
# opt freq B3LYP/6-31G(d) empiricaldispersion=gd3bj scf=xqc

CID_62542993_JID_3735_neutraal

0 1
C          0.91520        0.03844       -0.03650
O          0.35500       -1.26449       -0.09543
C          1.29018       -2.26189        0.33813
C          0.61481       -3.63695        0.23701
N          0.33002       -3.96225       -1.16465
C         -0.70045       -4.98925       -1.33160
C         -2.15707       -4.65472       -0.90060
N         -2.93031       -3.79855       -1.82812
C         -4.38553       -3.97515       -1.59762
C         -4.91481       -3.33031       -0.29399
N         -4.59513       -1.89639       -0.18297
C         -3.14716       -1.70030       -0.38709
C         -2.63271       -2.35537       -1.68992
H          0.15873        0.75378       -0.37009
H          1.78260        0.11267       -0.69935
H          1.20249        0.28662        0.98973
H          2.19171       -2.22486       -0.28488
H          1.56813       -2.06699        1.38010
H          1.27142       -4.40365        0.66122
H         -0.30163       -3.59903        0.83281
H          0.04518       -3.11273       -1.64874
H         -0.71288       -5.27978       -2.38943
H         -0.37966       -5.88774       -0.78847
H         -2.65446       -5.63433       -0.86488
H         -2.19040       -4.28502        0.12843
H         -4.91766       -3.52948       -2.44907
H         -4.65097       -5.03929       -1.61804
H         -4.51714       -3.85826        0.58076
H         -6.00389       -3.44511       -0.25597
H         -5.07942       -1.41081       -0.93888
H         -2.60068       -2.08317        0.48210
H         -2.94779       -0.62330       -0.42630
H         -1.57230       -2.14396       -1.81417
H         -3.10757       -1.84159       -2.53787

--Link1--
%chk=JID_3735.chk
%mem=8GB
%nprocshared=4
# B3LYP/6-311++G(d,p) empiricaldispersion=gd3bj scf=xqc pop=npa geom=check

CID_62542993_JID_3735_Energie_neutraal

0 1

--Link1--
%chk=JID_3735.chk
%mem=8GB
%nprocshared=4
# B3LYP/6-311++G(d,p) empiricaldispersion=gd3bj scf=xqc pop=npa geom=check

CID_62542993_JID_3735_Energie_kation

1 2

--Link1--
%chk=JID_3735.chk
%mem=8GB
%nprocshared=4
# B3LYP/6-311++G(d,p) empiricaldispersion=gd3bj scf=xqc pop=npa geom=check

CID_62542993_JID_3735_Energie_anion

-1 2
