%chk=JID_7102.chk
%mem=8GB
%nprocshared=4
# opt freq B3LYP/6-31G(d) empiricaldispersion=gd3bj scf=xqc

CID_127363333_JID_7102_neutraal

0 1
C          1.07363       -0.04694       -0.04874
C          1.04420        0.43343        1.39736
C          1.61746        1.86054        1.48711
O          0.85406        2.82258        1.33862
N          2.97056        2.02921        1.72763
C          3.99950        0.99630        1.57185
C          5.14641        1.19156        2.56909
O          5.68091        2.51951        2.48714
C          4.66361        3.48404        2.79991
C          3.49846        3.39445        1.81040
N         -0.38047        0.48120        1.84969
S         -0.61136        0.57538        3.52745
O          0.65940        0.86972        4.15274
O         -1.76919        1.41897        3.71424
C         -1.11243       -1.05164        4.15629
C         -1.41139       -2.10324        3.12306
C         -0.12826       -2.16273        3.90616
H          0.51254        0.62874       -0.70455
H          0.62534       -1.04247       -0.13593
H          2.09863       -0.09871       -0.42893
H          1.59191       -0.26916        2.02732
H          4.37904        1.09958        0.54810
H          3.58941       -0.00891        1.67208
H          4.81159        1.00226        3.59591
H          5.95700        0.49065        2.34647
H          5.11904        4.47806        2.75437
H          4.32066        3.31886        3.82844
H          3.84173        3.65624        0.80258
H          2.71437        4.10221        2.09769
H         -0.83599        1.31602        1.45378
H         -1.66400       -1.05040        5.08481
H         -2.18437       -2.82699        3.35769
H         -1.35835       -1.85956        2.06925
H          0.79955       -1.94720        3.39306
H         -0.03308       -2.92494        4.67175

--Link1--
%chk=JID_7102.chk
%mem=8GB
%nprocshared=4
# B3LYP/6-311++G(d,p) empiricaldispersion=gd3bj scf=xqc pop=npa geom=check

CID_127363333_JID_7102_Energie_neutraal

0 1

--Link1--
%chk=JID_7102.chk
%mem=8GB
%nprocshared=4
# B3LYP/6-311++G(d,p) empiricaldispersion=gd3bj scf=xqc pop=npa geom=check

CID_127363333_JID_7102_Energie_kation

1 2

--Link1--
%chk=JID_7102.chk
%mem=8GB
%nprocshared=4
# B3LYP/6-311++G(d,p) empiricaldispersion=gd3bj scf=xqc pop=npa geom=check

CID_127363333_JID_7102_Energie_anion

-1 2
