%chk=JID_8237.chk
%mem=8GB
%nprocshared=4
# opt freq B3LYP/6-31G(d) empiricaldispersion=gd3bj scf=xqc

CID_57230143_JID_8237_neutraal

0 1
C         -3.09800        0.44100       -0.02000
C         -1.73759        0.06880       -0.51533
C         -0.59905        0.52137        0.17144
C          0.69008        0.02636       -0.10688
C          0.78815       -1.01578       -1.03981
C         -0.30552       -1.22389       -1.91290
C         -1.58555       -0.76824       -1.61676
N         -2.63226       -1.03240       -2.50439
N          1.78114       -2.07833       -1.05528
C          2.86501       -2.18118       -0.08365
C          2.46287       -2.90905        1.21986
C          0.92721       -3.10427        1.29872
C          0.40168       -3.78737        0.01204
C          1.19443       -3.35757       -1.23002
O          1.27021       -4.02185       -2.25543
C          2.96563       -4.34349        1.21532
N          3.38271       -5.53347        1.21155
C          1.81462        0.61474        0.69074
H         -3.04475        1.05243        0.88733
H         -3.63566        1.02358       -0.77519
H         -3.67481       -0.45660        0.22658
H         -0.72834        1.24838        0.97346
H         -0.18506       -1.88432       -2.77225
H         -2.49597       -1.85336       -3.08697
H         -3.56336       -0.98707       -2.10747
H          3.66427       -2.74691       -0.58436
H          3.31834       -1.21133        0.10892
H          2.85093       -2.39172        2.10274
H          0.65106       -3.71918        2.16576
H          0.42906       -2.14437        1.45701
H          0.50267       -4.87507        0.10368
H         -0.66076       -3.56807       -0.13191
H          1.54726        1.60610        1.07593
H          2.05960       -0.01220        1.55161
H          2.69317        0.77522        0.05877

--Link1--
%chk=JID_8237.chk
%mem=8GB
%nprocshared=4
# B3LYP/6-311++G(d,p) empiricaldispersion=gd3bj scf=xqc pop=npa geom=check

CID_57230143_JID_8237_Energie_neutraal

0 1

--Link1--
%chk=JID_8237.chk
%mem=8GB
%nprocshared=4
# B3LYP/6-311++G(d,p) empiricaldispersion=gd3bj scf=xqc pop=npa geom=check

CID_57230143_JID_8237_Energie_kation

1 2

--Link1--
%chk=JID_8237.chk
%mem=8GB
%nprocshared=4
# B3LYP/6-311++G(d,p) empiricaldispersion=gd3bj scf=xqc pop=npa geom=check

CID_57230143_JID_8237_Energie_anion

-1 2
