%chk=JID_5122.chk
%mem=8GB
%nprocshared=4
# opt freq B3LYP/6-31G(d) empiricaldispersion=gd3bj scf=xqc

CID_63346914_JID_5122_neutraal

0 1
C          1.03236        0.09352        0.01441
C          0.51225        1.22155       -0.89920
C          1.01091        0.96918       -2.33401
C         -1.02909        1.15905       -0.89425
C          0.98921        2.57443       -0.43335
N          2.17928        2.77273        0.15261
O          2.21442        4.15011        0.36510
C          1.04324        4.64594       -0.12571
N          0.25711        3.72220       -0.62825
C          0.83553        6.09873       -0.02678
C          0.19951        6.40287        1.30474
O          0.84318        6.92329        2.21999
C         -1.27367        6.05001        1.47686
O         -2.10641        6.72092        0.54267
C         -2.37248        8.06667        0.92205
H          0.65496       -0.88393       -0.30764
H          0.71738        0.24759        1.05330
H          2.12730        0.03892        0.00653
H          0.67164       -0.00327       -2.70839
H          0.64472        1.73936       -3.02330
H          2.10621        0.98238       -2.38295
H         -1.43022        1.35578        0.10713
H         -1.46485        1.90053       -1.57428
H         -1.38833        0.17314       -1.21099
H          1.78632        6.63752       -0.09901
H          0.19310        6.46715       -0.83195
H         -1.39075        4.97216        1.32939
H         -1.58635        6.26641        2.50513
H         -2.89583        8.09788        1.88248
H         -1.44557        8.64504        0.97674
H         -3.01688        8.51460        0.16078

--Link1--
%chk=JID_5122.chk
%mem=8GB
%nprocshared=4
# B3LYP/6-311++G(d,p) empiricaldispersion=gd3bj scf=xqc pop=npa geom=check

CID_63346914_JID_5122_Energie_neutraal

0 1

--Link1--
%chk=JID_5122.chk
%mem=8GB
%nprocshared=4
# B3LYP/6-311++G(d,p) empiricaldispersion=gd3bj scf=xqc pop=npa geom=check

CID_63346914_JID_5122_Energie_kation

1 2

--Link1--
%chk=JID_5122.chk
%mem=8GB
%nprocshared=4
# B3LYP/6-311++G(d,p) empiricaldispersion=gd3bj scf=xqc pop=npa geom=check

CID_63346914_JID_5122_Energie_anion

-1 2
