%chk=JID_3312.chk
%mem=8GB
%nprocshared=4
# opt freq B3LYP/6-31G(d) empiricaldispersion=gd3bj scf=xqc

CID_133667333_JID_3312_neutraal

0 1
C         -1.43100        0.32400       -0.23100
C         -1.35481       -1.00429        0.51625
C          0.04057       -1.62115        0.43595
C          1.12101       -0.63931        0.91574
C          1.03983        0.67738        0.12731
C         -0.35234        1.29615        0.23117
N          2.44533       -1.28476        0.78897
N          3.52936       -0.52459        1.08067
C          3.95519       -0.57745        2.30603
C          3.42483       -1.39395        3.43560
C          4.02719       -0.60440        4.57703
O          5.30685       -0.14866        4.11677
C          5.14529        0.23302        2.73944
H         -2.41996        0.77261       -0.08419
H         -1.31985        0.14275       -1.30725
H         -1.62333       -0.84757        1.56807
H         -2.09007       -1.70247        0.10002
H          0.23631       -1.92093       -0.60245
H          0.06489       -2.53649        1.04010
H          0.93894       -0.42168        1.97538
H          1.28309        0.50295       -0.92869
H          1.77212        1.39831        0.51011
H         -0.39574        2.21030       -0.37125
H         -0.54540        1.58889        1.27078
H          2.53132       -1.58964       -0.18616
H          2.33827       -1.44497        3.49513
H          3.85515       -2.39755        3.36973
H          4.15570       -1.20771        5.47973
H          3.41784        0.27288        4.82668
H          6.04169       -0.03117        2.17498
H          4.93153        1.30272        2.67158

--Link1--
%chk=JID_3312.chk
%mem=8GB
%nprocshared=4
# B3LYP/6-311++G(d,p) empiricaldispersion=gd3bj scf=xqc pop=npa geom=check

CID_133667333_JID_3312_Energie_neutraal

0 1

--Link1--
%chk=JID_3312.chk
%mem=8GB
%nprocshared=4
# B3LYP/6-311++G(d,p) empiricaldispersion=gd3bj scf=xqc pop=npa geom=check

CID_133667333_JID_3312_Energie_kation

1 2

--Link1--
%chk=JID_3312.chk
%mem=8GB
%nprocshared=4
# B3LYP/6-311++G(d,p) empiricaldispersion=gd3bj scf=xqc pop=npa geom=check

CID_133667333_JID_3312_Energie_anion

-1 2
