%chk=JID_5243.chk
%mem=8GB
%nprocshared=4
# opt freq B3LYP/6-31G(d) empiricaldispersion=gd3bj scf=xqc

CID_105733640_JID_5243_neutraal

0 1
C          1.06117        0.00418        0.07900
C          0.28832       -0.58719       -1.09393
C          0.89275       -1.90441       -1.56728
C          0.34368       -2.52915       -2.85494
C          0.85015       -3.95569       -2.67394
C          0.68268       -4.19391       -1.18639
O          0.73473       -2.91096       -0.54758
C         -1.18718       -2.53116       -3.03961
N         -1.68625       -1.21838       -3.45255
C         -2.97584       -1.26939       -4.17355
C         -4.09602       -1.77040       -3.25410
C         -3.34807        0.13875       -4.71219
O         -2.71149        0.49361       -5.94214
C         -1.30331        0.70208       -5.89647
C         -0.90113        1.88225       -5.02870
H          1.05291       -0.67007        0.94115
H          0.60961        0.95227        0.38802
H          2.10271        0.19917       -0.19580
H         -0.74313       -0.74178       -0.75862
H          0.28851        0.14164       -1.91149
H          1.97569       -1.76338       -1.69284
H          0.80560       -2.06848       -3.73688
H          0.33818       -4.70685       -3.28230
H          1.91642       -3.99845       -2.93028
H         -0.28962       -4.64238       -0.95845
H          1.46613       -4.83906       -0.77842
H         -1.42818       -3.26775       -3.81642
H         -1.68983       -2.85177       -2.11993
H         -1.78921       -0.61569       -2.63787
H         -2.87822       -1.94304       -5.03375
H         -4.20328       -1.13225       -2.36991
H         -5.05586       -1.77567       -3.78238
H         -3.91382       -2.79551       -2.91587
H         -4.42086        0.15516       -4.93828
H         -3.19362        0.91906       -3.95812
H         -0.77918       -0.21271       -5.60837
H         -0.99456        0.91487       -6.92599
H         -1.07304        1.67827       -3.96788
H          0.16164        2.10804       -5.15729
H         -1.48611        2.77055       -5.28761

--Link1--
%chk=JID_5243.chk
%mem=8GB
%nprocshared=4
# B3LYP/6-311++G(d,p) empiricaldispersion=gd3bj scf=xqc pop=npa geom=check

CID_105733640_JID_5243_Energie_neutraal

0 1

--Link1--
%chk=JID_5243.chk
%mem=8GB
%nprocshared=4
# B3LYP/6-311++G(d,p) empiricaldispersion=gd3bj scf=xqc pop=npa geom=check

CID_105733640_JID_5243_Energie_kation

1 2

--Link1--
%chk=JID_5243.chk
%mem=8GB
%nprocshared=4
# B3LYP/6-311++G(d,p) empiricaldispersion=gd3bj scf=xqc pop=npa geom=check

CID_105733640_JID_5243_Energie_anion

-1 2
