%chk=JID_4115.chk
%mem=8GB
%nprocshared=4
# opt freq B3LYP/6-31G(d) empiricaldispersion=gd3bj scf=xqc

CID_104681422_JID_4115_neutraal

0 1
C          0.95933        0.05551       -0.07256
C         -0.34453        0.05551       -0.07256
C         -1.86453        0.05551       -0.07256
C         -2.42833        1.41041        0.36067
C         -1.99693        2.61207       -0.49641
C         -2.35327        2.52820       -1.99353
C         -3.86051        2.37481       -2.28879
C         -4.82110        3.35203       -1.59498
C         -4.72692        4.82135       -2.01932
C         -5.03558        5.11099       -3.49056
N         -6.40879        4.76675       -3.84217
C         -1.75373        3.65243       -2.82179
O         -1.83392        3.75490       -4.03652
O         -1.09290        4.58742       -2.11883
H          2.02505        0.05532       -0.07146
H         -2.22560       -0.22018       -1.06861
H         -2.21123       -0.71933        0.62090
H         -3.52194        1.34405        0.38070
H         -2.11743        1.60856        1.39490
H         -2.43168        3.52075       -0.06128
H         -0.91157        2.73959       -0.39235
H         -1.85267        1.63452       -2.39084
H         -4.03267        2.40614       -3.37135
H         -4.15718        1.36289       -1.98259
H         -5.84511        2.99819       -1.76768
H         -4.68257        3.29756       -0.50948
H         -5.42479        5.39777       -1.39715
H         -3.73305        5.21251       -1.77958
H         -4.89118        6.18172       -3.67288
H         -4.34691        4.57973       -4.15248
H         -6.57430        5.01963       -4.81622
H         -6.53110        3.75627       -3.79590
H         -0.76375        5.21184       -2.79875

--Link1--
%chk=JID_4115.chk
%mem=8GB
%nprocshared=4
# B3LYP/6-311++G(d,p) empiricaldispersion=gd3bj scf=xqc pop=npa geom=check

CID_104681422_JID_4115_Energie_neutraal

0 1

--Link1--
%chk=JID_4115.chk
%mem=8GB
%nprocshared=4
# B3LYP/6-311++G(d,p) empiricaldispersion=gd3bj scf=xqc pop=npa geom=check

CID_104681422_JID_4115_Energie_kation

1 2

--Link1--
%chk=JID_4115.chk
%mem=8GB
%nprocshared=4
# B3LYP/6-311++G(d,p) empiricaldispersion=gd3bj scf=xqc pop=npa geom=check

CID_104681422_JID_4115_Energie_anion

-1 2
