%chk=JID_10393.chk
%mem=8GB
%nprocshared=4
# opt freq B3LYP/6-31G(d) empiricaldispersion=gd3bj scf=xqc

CID_127916562_JID_10393_neutraal

0 1
C          0.91814        0.04355        0.03745
C          0.44210        1.19000       -0.86962
C          0.14255        2.44074       -0.01409
O          1.34264        2.99311        0.53576
C          2.19643        3.42715       -0.52680
C          2.56919        2.26724       -1.46675
N          1.46655        1.40153       -1.91076
C          0.96255        1.62722       -3.26730
C          0.10198        2.86860       -3.57743
N          0.90120        4.09405       -3.51697
S          0.17052        5.57671       -3.32241
O         -0.90559        5.40610       -2.37088
O          1.24473        6.51218       -3.08091
C         -0.55644        5.92758       -4.91931
C          0.47614        6.14866       -6.02419
C          0.79704        4.90085       -6.85911
C         -0.33056        4.52898       -7.81814
C         -0.75564        5.74059       -8.63691
C         -1.05428        6.92112       -7.72759
O          0.06673        7.21843       -6.89694
H          1.10669       -0.86353       -0.54797
H          0.15066       -0.19983        0.78050
H          1.83686        0.29448        0.57833
H         -0.49655        0.85318       -1.32792
H         -0.37466        3.21029       -0.59691
H         -0.51296        2.17917        0.82359
H          3.10610        3.83272       -0.07170
H          1.71080        4.24889       -1.05735
H          3.25929        1.61746       -0.91282
H          3.15226        2.64480       -2.31498
H          1.81482        1.60915       -3.95995
H          0.36805        0.74558       -3.54221
H         -0.29163        2.76637       -4.59484
H         -0.75345        2.91078       -2.89850
H          1.83934        4.10088       -3.91466
H         -1.26429        5.12494       -5.14468
H         -1.14467        6.83975       -4.76180
H          1.41709        6.49396       -5.58372
H          1.68724        5.11684       -7.46490
H          1.05053        4.04669       -6.22633
H         -1.18945        4.14367       -7.25689
H         -0.00180        3.72532       -8.48650
H         -1.63003        5.50033       -9.25056
H          0.06235        6.00887       -9.31702
H         -1.93929        6.73492       -7.10951
H         -1.26169        7.81046       -8.33147

--Link1--
%chk=JID_10393.chk
%mem=8GB
%nprocshared=4
# B3LYP/6-311++G(d,p) empiricaldispersion=gd3bj scf=xqc pop=npa geom=check

CID_127916562_JID_10393_Energie_neutraal

0 1

--Link1--
%chk=JID_10393.chk
%mem=8GB
%nprocshared=4
# B3LYP/6-311++G(d,p) empiricaldispersion=gd3bj scf=xqc pop=npa geom=check

CID_127916562_JID_10393_Energie_kation

1 2

--Link1--
%chk=JID_10393.chk
%mem=8GB
%nprocshared=4
# B3LYP/6-311++G(d,p) empiricaldispersion=gd3bj scf=xqc pop=npa geom=check

CID_127916562_JID_10393_Energie_anion

-1 2
