%chk=JID_7047.chk
%mem=8GB
%nprocshared=4
# opt freq B3LYP/6-31G(d) empiricaldispersion=gd3bj scf=xqc

CID_66395798_JID_7047_neutraal

0 1
C         -2.00200        0.78600        0.03100
C         -2.15778       -0.77130       -0.12009
C         -0.67566       -0.83827        0.15796
C          0.39269       -1.69033        0.31501
C          1.63557       -1.11354        0.58788
C          1.77022        0.28394        0.70129
C          0.66281        1.12185        0.54746
C         -0.54543        0.52404        0.27858
C         -2.57901       -1.23470       -1.51741
N         -2.47263       -2.67369       -1.71398
C         -3.33347       -3.46257       -0.97234
N         -2.84137       -4.64354       -0.58044
C         -3.66733       -5.43787        0.13588
C         -4.97809       -5.13586        0.44479
C         -5.34333       -3.86504        0.05052
N         -4.56291       -3.02787       -0.66670
N         -5.75951       -5.92182        1.29308
H         -2.56441        1.20945        0.87104
H         -2.24245        1.36805       -0.86584
H         -2.79055       -1.19658        0.67026
H          0.27609       -2.76527        0.23614
H          2.50840       -1.74884        0.71819
H          2.74605        0.71294        0.91607
H          0.75349        2.19781        0.64018
H         -3.59986       -0.89330       -1.73199
H         -1.94790       -0.75639       -2.27755
H         -1.54361       -3.05941       -1.59045
H         -3.21626       -6.36858        0.46691
H         -6.31668       -3.45829        0.30781
H         -5.53290       -6.91247        1.26879
H         -6.75940       -5.76048        1.20595

--Link1--
%chk=JID_7047.chk
%mem=8GB
%nprocshared=4
# B3LYP/6-311++G(d,p) empiricaldispersion=gd3bj scf=xqc pop=npa geom=check

CID_66395798_JID_7047_Energie_neutraal

0 1

--Link1--
%chk=JID_7047.chk
%mem=8GB
%nprocshared=4
# B3LYP/6-311++G(d,p) empiricaldispersion=gd3bj scf=xqc pop=npa geom=check

CID_66395798_JID_7047_Energie_kation

1 2

--Link1--
%chk=JID_7047.chk
%mem=8GB
%nprocshared=4
# B3LYP/6-311++G(d,p) empiricaldispersion=gd3bj scf=xqc pop=npa geom=check

CID_66395798_JID_7047_Energie_anion

-1 2
