%chk=JID_9013.chk
%mem=8GB
%nprocshared=4
# opt freq B3LYP/6-31G(d) empiricaldispersion=gd3bj scf=xqc

CID_107645134_JID_9013_neutraal

0 1
C          0.94584       -0.07112        0.04482
O          0.36227       -0.79343        1.13158
C          0.97509       -1.97924        1.39598
O          1.92547       -2.43153        0.77593
C          0.33609       -2.64669        2.56562
C         -0.82747       -2.16047        3.14613
N         -1.41031       -2.75515        4.21483
C         -0.77481       -3.86689        4.66783
C          0.38978       -4.37809        4.09106
N          0.96271       -3.76204        3.03553
N          1.06594       -5.49404        4.59500
C          0.52277       -6.65870        5.17954
C          1.19503       -7.15636        6.31054
C          0.78142       -8.32688        6.94681
C         -0.30135       -9.03818        6.44560
C         -0.95303       -8.58960        5.29657
C         -0.53623       -7.41978        4.63835
S         -1.41481       -7.01683        3.12666
C         -0.11894       -7.40125        1.92022
H          0.40329        0.87202       -0.06406
H          0.84734       -0.63747       -0.88651
H          1.99606        0.15617        0.25332
H         -1.33801       -1.27711        2.77922
H         -1.23139       -4.34398        5.52874
H          1.82957       -5.70083        3.95591
H          2.04348       -6.60766        6.71575
H          1.30466       -8.67853        7.83238
H         -0.63248       -9.94881        6.93844
H         -1.78498       -9.17312        4.90649
H          0.71232       -6.69691        1.99665
H          0.25391       -8.41862        2.06692
H         -0.53847       -7.32795        0.91324

--Link1--
%chk=JID_9013.chk
%mem=8GB
%nprocshared=4
# B3LYP/6-311++G(d,p) empiricaldispersion=gd3bj scf=xqc pop=npa geom=check

CID_107645134_JID_9013_Energie_neutraal

0 1

--Link1--
%chk=JID_9013.chk
%mem=8GB
%nprocshared=4
# B3LYP/6-311++G(d,p) empiricaldispersion=gd3bj scf=xqc pop=npa geom=check

CID_107645134_JID_9013_Energie_kation

1 2

--Link1--
%chk=JID_9013.chk
%mem=8GB
%nprocshared=4
# B3LYP/6-311++G(d,p) empiricaldispersion=gd3bj scf=xqc pop=npa geom=check

CID_107645134_JID_9013_Energie_anion

-1 2
