%chk=JID_6051.chk
%mem=8GB
%nprocshared=4
# opt freq B3LYP/6-31G(d) empiricaldispersion=gd3bj scf=xqc

CID_66138861_JID_6051_neutraal

0 1
C          0.92899       -0.07004       -0.00717
C          0.10690        1.19972        0.15639
N          0.59156        2.25648       -0.72875
C          0.42231        3.63466       -0.23002
C          1.25328        3.92144        1.09121
S          3.05342        4.37291        0.97711
C          4.00890        2.80186        1.03492
C          3.54384        1.85912        2.13959
C          4.21258        2.07542       -0.30647
C          4.61961        2.94194       -1.49442
O          5.79124        3.68258       -1.19301
C          0.92897        4.65550       -1.23579
N          1.34929        5.50238       -2.07016
C         -1.06277        3.95350       -0.01314
C         -1.92444        4.81142       -0.93331
C         -2.16299        3.33773       -0.86656
H          0.94054       -0.40058       -1.05147
H          0.48915       -0.87629        0.58954
H          1.96089        0.05434        0.32352
H         -0.93454        0.97122       -0.09296
H          0.12566        1.47442        1.21363
H          1.56075        2.11301       -0.98787
H          0.82210        4.82728        1.54091
H          1.10897        3.16160        1.86140
H          5.00855        3.13941        1.33848
H          2.53960        1.47184        1.96317
H          4.21485        0.99527        2.20992
H          3.55278        2.35669        3.11517
H          5.00888        1.33366       -0.15217
H          3.33350        1.49559       -0.57977
H          4.84124        2.30015       -2.35353
H          3.82480        3.62694       -1.80384
H          5.49996        4.50484       -0.75994
H         -1.29462        4.01659        1.04805
H         -2.65891        5.46624       -0.47574
H         -1.54340        5.19536       -1.87373
H         -1.89513        2.74984       -1.73826
H         -3.05770        2.98817       -0.36295

--Link1--
%chk=JID_6051.chk
%mem=8GB
%nprocshared=4
# B3LYP/6-311++G(d,p) empiricaldispersion=gd3bj scf=xqc pop=npa geom=check

CID_66138861_JID_6051_Energie_neutraal

0 1

--Link1--
%chk=JID_6051.chk
%mem=8GB
%nprocshared=4
# B3LYP/6-311++G(d,p) empiricaldispersion=gd3bj scf=xqc pop=npa geom=check

CID_66138861_JID_6051_Energie_kation

1 2

--Link1--
%chk=JID_6051.chk
%mem=8GB
%nprocshared=4
# B3LYP/6-311++G(d,p) empiricaldispersion=gd3bj scf=xqc pop=npa geom=check

CID_66138861_JID_6051_Energie_anion

-1 2
