%chk=JID_3915.chk
%mem=8GB
%nprocshared=4
# opt freq B3LYP/6-31G(d) empiricaldispersion=gd3bj scf=xqc

CID_141682977_JID_3915_neutraal

0 1
C          1.06555        0.05380        0.05300
C          0.36044       -1.29966       -0.04250
C          0.68282       -2.13597        1.20165
C         -1.17165       -1.15479       -0.18590
C         -1.72280       -0.27861       -1.36228
C         -1.09627       -0.75196       -2.72816
C         -1.65702       -2.08021       -3.24259
C         -1.11457        0.29428       -3.84788
C         -3.30481       -0.23877       -1.31855
C         -3.93966       -0.02015        0.09639
C         -3.54651        1.30007        0.77092
C         -5.47119       -0.16193        0.09715
S         -3.99633        0.99538       -2.49873
H          0.66564        0.65170        0.87900
H          0.95269        0.63020       -0.86996
H          2.13951       -0.07943        0.22254
H          0.76407       -1.84978       -0.89905
H          0.32960       -1.64556        2.11519
H          0.20979       -3.12181        1.14023
H          1.76300       -2.29018        1.29676
H         -1.61535       -2.15637       -0.25229
H         -1.51782       -0.72960        0.76199
H         -1.36555        0.74360       -1.17946
H         -0.02778       -0.91508       -2.55849
H         -2.69726       -1.98441       -3.56828
H         -1.07793       -2.42874       -4.10522
H         -1.60444       -2.86094       -2.47840
H         -0.87390        1.29160       -3.46664
H         -0.35776        0.04399       -4.60116
H         -2.06929        0.32922       -4.37749
H         -3.67048       -1.21218       -1.66471
H         -3.59290       -0.83442        0.74355
H         -3.97539        2.16686        0.25879
H         -3.91290        1.32027        1.80353
H         -2.46165        1.43102        0.80967
H         -5.77764       -1.08810       -0.40021
H         -5.84684       -0.20072        1.12598
H         -5.96910        0.67819       -0.39652
H         -3.34458        2.06155       -2.01266

--Link1--
%chk=JID_3915.chk
%mem=8GB
%nprocshared=4
# B3LYP/6-311++G(d,p) empiricaldispersion=gd3bj scf=xqc pop=npa geom=check

CID_141682977_JID_3915_Energie_neutraal

0 1

--Link1--
%chk=JID_3915.chk
%mem=8GB
%nprocshared=4
# B3LYP/6-311++G(d,p) empiricaldispersion=gd3bj scf=xqc pop=npa geom=check

CID_141682977_JID_3915_Energie_kation

1 2

--Link1--
%chk=JID_3915.chk
%mem=8GB
%nprocshared=4
# B3LYP/6-311++G(d,p) empiricaldispersion=gd3bj scf=xqc pop=npa geom=check

CID_141682977_JID_3915_Energie_anion

-1 2
