%chk=JID_9146.chk
%mem=8GB
%nprocshared=4
# opt freq B3LYP/6-31G(d) empiricaldispersion=gd3bj scf=xqc

CID_14328180_JID_9146_neutraal

0 1
C          1.06588       -0.05527        0.05103
C          0.42783       -1.19329        0.83699
C          0.58550       -1.05879        2.33106
N          0.57552        0.19586        2.85734
C          0.68977        0.29500        4.20652
C          0.77596       -0.83933        5.01890
N          0.75358       -2.09080        4.49825
C          0.68318       -2.18330        3.15278
O          0.67684       -3.42737        2.55824
C          1.23979       -4.47936        3.34654
C          2.71929       -4.73640        2.99609
N          3.62029       -3.73640        3.59578
C          4.72393       -4.35661        4.33640
C          5.54925       -3.29739        5.07005
C          6.05778       -2.22195        4.11635
C          4.91299       -1.66180        3.27934
C          4.12640       -2.78307        2.59971
C          0.91147       -0.74310        6.50769
C          0.72147        1.68184        4.77262
H          0.59345        0.90582        0.27989
H          0.95790       -0.23238       -1.02389
H          2.13435        0.02910        0.27706
H         -0.64200       -1.24698        0.60522
H          0.88611       -2.12626        0.48972
H          1.08821       -4.37028        4.42702
H          0.67807       -5.37997        3.06922
H          2.96402       -5.73881        3.37054
H          2.84284       -4.77829        1.90635
H          5.36961       -4.93514        3.66305
H          4.32703       -5.05078        5.08728
H          6.39652       -3.77339        5.57641
H          4.93337       -2.82997        5.84923
H          6.54071       -1.41665        4.68064
H          6.81815       -2.65232        3.45326
H          4.24106       -1.07720        3.92092
H          5.30967       -0.97527        2.52299
H          3.30140       -2.33029        2.04135
H          4.76569       -3.29145        1.86585
H          1.83693       -0.22302        6.77334
H          0.05763       -0.21082        6.93752
H          0.94635       -1.74006        6.95962
H          0.64606        2.42851        3.97512
H         -0.11857        1.83580        5.45656
H          1.66161        1.85558        5.30511

--Link1--
%chk=JID_9146.chk
%mem=8GB
%nprocshared=4
# B3LYP/6-311++G(d,p) empiricaldispersion=gd3bj scf=xqc pop=npa geom=check

CID_14328180_JID_9146_Energie_neutraal

0 1

--Link1--
%chk=JID_9146.chk
%mem=8GB
%nprocshared=4
# B3LYP/6-311++G(d,p) empiricaldispersion=gd3bj scf=xqc pop=npa geom=check

CID_14328180_JID_9146_Energie_kation

1 2

--Link1--
%chk=JID_9146.chk
%mem=8GB
%nprocshared=4
# B3LYP/6-311++G(d,p) empiricaldispersion=gd3bj scf=xqc pop=npa geom=check

CID_14328180_JID_9146_Energie_anion

-1 2
