%chk=JID_2567.chk
%mem=8GB
%nprocshared=4
# opt freq B3LYP/6-31G(d) empiricaldispersion=gd3bj scf=xqc

CID_149200477_JID_2567_neutraal

0 1
C          0.97887       -0.07469       -0.06305
C          0.09608        1.16723       -0.00744
C          0.70255        2.40499       -0.73272
C         -0.46215        3.16397       -1.40895
C         -1.32476        3.91039       -0.39776
N         -0.56827        4.90501        0.34949
C          0.65509        4.38092        0.95409
C          1.56070        3.37384        0.17089
C          2.35844        2.59042        1.26032
C          2.70897        4.06562       -0.64647
C          2.41032        5.03716       -1.76835
C         -0.45953        6.17730       -0.33898
H          1.20231       -0.34665       -1.09976
H          0.45791       -0.92074        0.39752
H          1.92325        0.05388        0.46683
H         -0.84868        0.88053       -0.48723
H         -0.16476        1.40259        1.02978
H          1.34313        2.02477       -1.53986
H         -0.08841        3.86196       -2.16037
H         -1.09210        2.46267       -1.97097
H         -1.76952        3.20037        0.31000
H         -2.17640        4.37569       -0.90991
H          0.30601        3.86778        1.86160
H          1.27094        5.20465        1.33965
H          3.06545        1.88691        0.80856
H          2.94522        3.27760        1.88317
H          1.71009        2.03784        1.94637
H          3.36093        4.60295        0.05695
H          3.33903        3.27384       -1.07648
H          1.98424        5.96461       -1.38790
H          3.34979        5.31647       -2.26026
H          1.77385        4.60964       -2.54185
H         -0.10715        6.08046       -1.36770
H         -1.44562        6.65415       -0.38543
H          0.19147        6.87527        0.19806

--Link1--
%chk=JID_2567.chk
%mem=8GB
%nprocshared=4
# B3LYP/6-311++G(d,p) empiricaldispersion=gd3bj scf=xqc pop=npa geom=check

CID_149200477_JID_2567_Energie_neutraal

0 1

--Link1--
%chk=JID_2567.chk
%mem=8GB
%nprocshared=4
# B3LYP/6-311++G(d,p) empiricaldispersion=gd3bj scf=xqc pop=npa geom=check

CID_149200477_JID_2567_Energie_kation

1 2

--Link1--
%chk=JID_2567.chk
%mem=8GB
%nprocshared=4
# B3LYP/6-311++G(d,p) empiricaldispersion=gd3bj scf=xqc pop=npa geom=check

CID_149200477_JID_2567_Energie_anion

-1 2
