%chk=JID_10522.chk
%mem=8GB
%nprocshared=4
# opt freq B3LYP/6-31G(d) empiricaldispersion=gd3bj scf=xqc

CID_112539963_JID_10522_neutraal

0 1
C          1.02042        0.09674       -0.01498
C         -0.47526       -0.18209       -0.24703
C         -1.27682        1.16048       -0.25793
N         -1.82840        1.53982       -1.57522
C         -0.83058        1.26077       -2.61884
C         -0.54156       -0.25616       -2.71439
N         -0.60139       -1.02238       -1.45439
C         -1.68023       -2.04063       -1.38116
C         -3.13688       -1.53325       -1.15020
O         -3.59835       -0.59633       -2.11831
C         -1.53684       -3.09941       -2.48637
C         -0.45227       -3.99847       -2.43404
C         -0.29300       -4.96925       -3.42253
C         -1.17409       -5.02368       -4.49908
C         -2.24901       -4.15239       -4.57425
C         -2.43072       -3.19678       -3.56958
O         -0.99383       -5.93571       -5.49970
O          0.75936       -5.84876       -3.39904
C          0.54753       -6.84098       -2.39259
C         -2.23173        2.94478       -1.58880
H          1.16878        0.62858        0.93140
H          1.45985        0.70362       -0.81289
H          1.58544       -0.84049        0.04644
H         -0.80012       -0.75551        0.63163
H         -2.12398        1.05904        0.43169
H         -0.64368        1.96574        0.13765
H          0.09912        1.80941       -2.42034
H         -1.19890        1.59794       -3.59569
H          0.46508       -0.38128       -3.13240
H         -1.21923       -0.67126       -3.46780
H         -1.47456       -2.62165       -0.46813
H         -3.83531       -2.37780       -1.15026
H         -3.22370       -1.06089       -0.16575
H         -3.04952        0.20951       -1.99151
H          0.27377       -3.92347       -1.62879
H         -2.93587       -4.20338       -5.41327
H         -3.27076       -2.51122       -3.66302
H         -0.13326       -6.35530       -5.30953
H          0.57139       -6.40514       -1.38846
H         -0.39602       -7.37390       -2.55748
H          1.36199       -7.56806       -2.46471
H         -2.98227        3.13473       -0.81373
H         -1.38573        3.62208       -1.42609
H         -2.69670        3.19899       -2.54764

--Link1--
%chk=JID_10522.chk
%mem=8GB
%nprocshared=4
# B3LYP/6-311++G(d,p) empiricaldispersion=gd3bj scf=xqc pop=npa geom=check

CID_112539963_JID_10522_Energie_neutraal

0 1

--Link1--
%chk=JID_10522.chk
%mem=8GB
%nprocshared=4
# B3LYP/6-311++G(d,p) empiricaldispersion=gd3bj scf=xqc pop=npa geom=check

CID_112539963_JID_10522_Energie_kation

1 2

--Link1--
%chk=JID_10522.chk
%mem=8GB
%nprocshared=4
# B3LYP/6-311++G(d,p) empiricaldispersion=gd3bj scf=xqc pop=npa geom=check

CID_112539963_JID_10522_Energie_anion

-1 2
