%chk=JID_7682.chk
%mem=8GB
%nprocshared=4
# opt freq B3LYP/6-31G(d) empiricaldispersion=gd3bj scf=xqc

CID_123435332_JID_7682_neutraal

0 1
C          1.05436        0.02131        0.08118
C          0.14750       -1.17139       -0.17685
C          0.33622       -2.32027        0.81963
C         -0.03359       -2.01483        2.27949
C         -1.49936       -1.68303        2.49267
C         -1.84006       -0.31831        2.54487
C         -3.16112        0.09091        2.65527
C         -4.17023       -0.86023        2.70187
C         -3.87852       -2.23741        2.66966
C         -2.52335       -2.66481        2.59394
C         -2.17117       -4.14258        2.66759
C         -1.77023       -4.57877        4.08461
C         -1.87562       -6.09114        4.29941
C         -0.95979       -6.89904        3.39380
C         -5.06791       -3.18108        2.68759
C         -5.43888       -3.74699        4.06018
C         -5.92202       -2.69130        5.04409
H          0.83678        0.50001        1.03902
H          0.91897        0.77208       -0.70400
H          2.10646       -0.28102        0.08051
H         -0.89755       -0.84461       -0.19431
H          0.36534       -1.55383       -1.18178
H         -0.25095       -3.17291        0.46017
H          1.38591       -2.63948        0.79185
H          0.24450       -2.87087        2.90176
H          0.59090       -1.19524        2.65685
H         -1.06572        0.44333        2.48669
H         -3.40474        1.14889        2.68721
H         -5.20204       -0.52039        2.76647
H         -3.00661       -4.75380        2.31612
H         -1.36297       -4.37236        1.96644
H         -0.74699       -4.25473        4.30529
H         -2.40435       -4.08410        4.82954
H         -1.62443       -6.31396        5.34322
H         -2.91230       -6.41480        4.14889
H          0.08288       -6.58807        3.51112
H         -1.02734       -7.96254        3.64501
H         -1.23824       -6.78903        2.34148
H         -5.94352       -2.66290        2.27231
H         -4.89554       -4.00199        1.98285
H         -6.24417       -4.47870        3.92129
H         -4.60016       -4.29173        4.49991
H         -6.75787       -2.11950        4.62851
H         -6.26573       -3.16834        5.96753
H         -5.12142       -1.99463        5.30965

--Link1--
%chk=JID_7682.chk
%mem=8GB
%nprocshared=4
# B3LYP/6-311++G(d,p) empiricaldispersion=gd3bj scf=xqc pop=npa geom=check

CID_123435332_JID_7682_Energie_neutraal

0 1

--Link1--
%chk=JID_7682.chk
%mem=8GB
%nprocshared=4
# B3LYP/6-311++G(d,p) empiricaldispersion=gd3bj scf=xqc pop=npa geom=check

CID_123435332_JID_7682_Energie_kation

1 2

--Link1--
%chk=JID_7682.chk
%mem=8GB
%nprocshared=4
# B3LYP/6-311++G(d,p) empiricaldispersion=gd3bj scf=xqc pop=npa geom=check

CID_123435332_JID_7682_Energie_anion

-1 2
