%chk=JID_4168.chk
%mem=8GB
%nprocshared=4
# opt freq B3LYP/6-31G(d) empiricaldispersion=gd3bj scf=xqc

CID_14925305_JID_4168_neutraal

0 1
C          0.99217       -0.01554        0.09847
C          0.33969       -0.39738        1.41881
N          0.72769        0.50763        2.50190
C         -0.10027        1.70220        2.67452
C         -1.22605        1.47500        3.67187
C          1.87631        0.17923        3.24636
O          2.54322       -0.80883        2.92123
C          2.29628        0.97340        4.39710
C          3.41500        0.80863        5.20029
C          3.37773        1.81391        6.20554
C          2.23287        2.53509        5.94744
O          1.57489        2.03145        4.87513
C          4.35715        2.04490        7.29480
O          5.25227        3.10008        6.96887
H          0.70435        0.99542       -0.20718
H          0.68768       -0.71024       -0.69030
H          2.08397       -0.04187        0.17520
H         -0.75178       -0.38613        1.32157
H          0.62088       -1.42476        1.67622
H          0.51865        2.55497        2.96086
H         -0.53006        1.96942        1.70166
H         -0.84768        1.17430        4.65314
H         -1.81374        2.38967        3.79569
H         -1.89903        0.68348        3.32573
H          4.16178        0.03670        5.06411
H          1.77207        3.39322        6.41814
H          3.84381        2.31192        8.22432
H          4.94684        1.14314        7.49030
H          5.61136        2.89742        6.08800

--Link1--
%chk=JID_4168.chk
%mem=8GB
%nprocshared=4
# B3LYP/6-311++G(d,p) empiricaldispersion=gd3bj scf=xqc pop=npa geom=check

CID_14925305_JID_4168_Energie_neutraal

0 1

--Link1--
%chk=JID_4168.chk
%mem=8GB
%nprocshared=4
# B3LYP/6-311++G(d,p) empiricaldispersion=gd3bj scf=xqc pop=npa geom=check

CID_14925305_JID_4168_Energie_kation

1 2

--Link1--
%chk=JID_4168.chk
%mem=8GB
%nprocshared=4
# B3LYP/6-311++G(d,p) empiricaldispersion=gd3bj scf=xqc pop=npa geom=check

CID_14925305_JID_4168_Energie_anion

-1 2
