%chk=JID_6448.chk
%mem=8GB
%nprocshared=4
# opt freq B3LYP/6-31G(d) empiricaldispersion=gd3bj scf=xqc

CID_12397274_JID_6448_neutraal

0 1
C         -1.54800       -1.75300        0.01900
C         -0.40671       -0.78375       -0.06620
C         -0.63817        0.58313       -0.19946
C          0.44616        1.44509       -0.30182
C          1.73620        0.92038       -0.27047
C          1.90443       -0.45471       -0.12152
N          0.84591       -1.30629       -0.01671
C          3.30054       -1.05698       -0.09799
C          3.55043       -1.93990        1.15357
N          2.78264       -3.20012        1.08523
C          2.82291       -4.04664        2.29031
C          2.19901       -3.34895        3.51102
C          1.98055       -5.29437        1.96279
C          4.25516       -4.49746        2.61729
O          3.49865       -1.84184       -1.27976
O         -1.91541        1.06170       -0.23206
H         -1.17867       -2.77984        0.11007
H         -2.16547       -1.53691        0.89636
H         -2.16537       -1.69437       -0.88274
H          0.30971        2.51566       -0.41458
H          2.59332        1.57901       -0.36812
H          4.04965       -0.25724       -0.11378
H          4.61724       -2.18780        1.17466
H          3.30695       -1.36026        2.04934
H          1.80405       -2.94250        0.88427
H          1.19737       -2.96620        3.28344
H          2.10092       -4.04615        4.35147
H          2.80908       -2.51040        3.86259
H          2.38245       -5.83316        1.09642
H          1.96558       -5.99386        2.80683
H          0.94026       -5.02903        1.73850
H          4.73172       -4.96961        1.75028
H          4.88575       -3.65998        2.93473
H          4.25838       -5.22998        3.43297
H          3.07197       -2.69591       -1.05897
H         -1.88727        2.02500       -0.35464

--Link1--
%chk=JID_6448.chk
%mem=8GB
%nprocshared=4
# B3LYP/6-311++G(d,p) empiricaldispersion=gd3bj scf=xqc pop=npa geom=check

CID_12397274_JID_6448_Energie_neutraal

0 1

--Link1--
%chk=JID_6448.chk
%mem=8GB
%nprocshared=4
# B3LYP/6-311++G(d,p) empiricaldispersion=gd3bj scf=xqc pop=npa geom=check

CID_12397274_JID_6448_Energie_kation

1 2

--Link1--
%chk=JID_6448.chk
%mem=8GB
%nprocshared=4
# B3LYP/6-311++G(d,p) empiricaldispersion=gd3bj scf=xqc pop=npa geom=check

CID_12397274_JID_6448_Energie_anion

-1 2
