%chk=JID_4690.chk
%mem=8GB
%nprocshared=4
# opt freq B3LYP/6-31G(d) empiricaldispersion=gd3bj scf=xqc

CID_54489269_JID_4690_neutraal

0 1
C          1.02964        0.04848       -0.08229
C          0.43513       -0.99212       -1.01819
C          0.73032       -2.43350       -0.59526
C          0.15096       -2.86312        0.75913
C         -1.35602       -2.84152        0.82129
C         -2.10052       -3.84303        0.31556
C         -3.51313       -3.95681        0.44191
C         -4.39247       -4.67408       -0.36296
C         -5.69612       -4.52030        0.16501
C         -5.55639       -3.73007        1.27585
O         -4.25752       -3.39177        1.45444
C         -1.93674       -1.68577        1.53031
O         -1.61911       -1.29846        2.64013
O         -2.77326       -0.98756        0.74434
H          0.56820        0.01073        0.90834
H          0.86585        1.05293       -0.48572
H          2.10826       -0.09773        0.03293
H         -0.64406       -0.83161       -1.11073
H          0.85635       -0.83616       -2.01890
H          0.35644       -3.10653       -1.37742
H          1.81796       -2.57686       -0.56555
H          0.49518       -3.88570        0.96651
H          0.58299       -2.25433        1.56204
H         -1.59971       -4.64802       -0.21564
H         -4.11458       -5.24004       -1.24160
H         -6.61828       -4.93647       -0.21446
H         -6.24584       -3.33983        2.01117
H         -3.09062       -0.26895        1.32667

--Link1--
%chk=JID_4690.chk
%mem=8GB
%nprocshared=4
# B3LYP/6-311++G(d,p) empiricaldispersion=gd3bj scf=xqc pop=npa geom=check

CID_54489269_JID_4690_Energie_neutraal

0 1

--Link1--
%chk=JID_4690.chk
%mem=8GB
%nprocshared=4
# B3LYP/6-311++G(d,p) empiricaldispersion=gd3bj scf=xqc pop=npa geom=check

CID_54489269_JID_4690_Energie_kation

1 2

--Link1--
%chk=JID_4690.chk
%mem=8GB
%nprocshared=4
# B3LYP/6-311++G(d,p) empiricaldispersion=gd3bj scf=xqc pop=npa geom=check

CID_54489269_JID_4690_Energie_anion

-1 2
