%chk=JID_9482.chk
%mem=8GB
%nprocshared=4
# opt freq B3LYP/6-31G(d) empiricaldispersion=gd3bj scf=xqc

CID_137512608_JID_9482_neutraal

0 1
C          0.95618        0.06529       -0.06178
C          0.26209        1.41871        0.00359
C          0.76598        2.43139       -1.04657
C          0.49879        2.01012       -2.51026
C         -0.97760        2.04140       -2.91015
N          1.27231        2.83766       -3.44400
C          2.19783        2.47587       -4.37879
O          2.69244        3.34640       -5.09517
C          2.58367        1.03264       -4.52434
C          3.47176        0.55470       -3.41889
O          3.17804       -0.36504       -2.66475
O          4.62847        1.26605       -3.37276
C          5.54921        0.91678       -2.32905
C          5.20462        1.66950       -1.05747
C          0.22763        3.83766       -0.80993
O          0.70345        4.83098       -1.34841
O         -0.86241        3.84932        0.00133
C         -1.44755        5.13570        0.25569
C         -0.75424        5.79983        1.43024
H          0.70098       -0.47627       -0.97664
H          0.64227       -0.55585        0.78355
H          2.04329        0.17680       -0.01113
H         -0.81995        1.26822       -0.08461
H          0.43212        1.83333        1.00594
H          1.85233        2.51521       -0.89806
H          0.83356        0.97981       -2.63458
H         -1.38716        3.05652       -2.87618
H         -1.10116        1.68111       -3.93788
H         -1.58325        1.40261       -2.26103
H          1.12025        3.84558       -3.41154
H          1.68544        0.40929       -4.57846
H          3.10804        0.89084       -5.47622
H          5.56948       -0.16608       -2.16162
H          6.54713        1.20946       -2.67130
H          4.21429        1.38499       -0.68943
H          5.93938        1.46480       -0.27378
H          5.17664        2.74815       -1.24383
H         -1.42181        5.76992       -0.63779
H         -2.50149        4.96499        0.49812
H          0.30377        5.97747        1.21293
H         -1.22716        6.75631        1.66990
H         -0.79356        5.15470        2.31414

--Link1--
%chk=JID_9482.chk
%mem=8GB
%nprocshared=4
# B3LYP/6-311++G(d,p) empiricaldispersion=gd3bj scf=xqc pop=npa geom=check

CID_137512608_JID_9482_Energie_neutraal

0 1

--Link1--
%chk=JID_9482.chk
%mem=8GB
%nprocshared=4
# B3LYP/6-311++G(d,p) empiricaldispersion=gd3bj scf=xqc pop=npa geom=check

CID_137512608_JID_9482_Energie_kation

1 2

--Link1--
%chk=JID_9482.chk
%mem=8GB
%nprocshared=4
# B3LYP/6-311++G(d,p) empiricaldispersion=gd3bj scf=xqc pop=npa geom=check

CID_137512608_JID_9482_Energie_anion

-1 2
