%chk=JID_4322.chk
%mem=8GB
%nprocshared=4
# opt freq B3LYP/6-31G(d) empiricaldispersion=gd3bj scf=xqc

CID_123760303_JID_4322_neutraal

0 1
C          1.01844        0.04267       -0.08854
C          0.74848       -0.50822       -1.47693
N          1.02050       -1.93543       -1.54462
C          0.15177       -2.97455       -1.30305
S          0.74631       -4.53978       -1.30018
C         -1.26906       -2.67036       -1.05797
C         -1.74754       -2.58985        0.25585
C         -3.10144       -2.31093        0.49795
C         -3.98847       -2.11453       -0.56413
C         -3.49995       -2.18950       -1.85943
C         -2.15050       -2.46495       -2.11152
C         -1.89620       -2.55390       -3.58451
C         -3.13380       -1.83931       -4.14601
C         -4.26831       -2.06808       -3.13839
H          0.37422       -0.42830        0.65997
H          0.83789        1.12165       -0.06505
H          2.05730       -0.13780        0.20728
H         -0.28409       -0.30299       -1.77060
H          1.40845       -0.02458       -2.20419
H          1.98629       -2.21799       -1.67575
H         -1.07377       -2.75125        1.09381
H         -3.46499       -2.25920        1.52163
H         -5.03900       -1.91620       -0.37394
H         -1.86956       -3.60201       -3.89990
H         -0.97756       -2.04604       -3.89023
H         -2.92602       -0.76225       -4.21467
H         -3.39329       -2.18169       -5.15262
H         -4.96908       -1.22867       -3.12846
H         -4.80148       -3.00123       -3.34731

--Link1--
%chk=JID_4322.chk
%mem=8GB
%nprocshared=4
# B3LYP/6-311++G(d,p) empiricaldispersion=gd3bj scf=xqc pop=npa geom=check

CID_123760303_JID_4322_Energie_neutraal

0 1

--Link1--
%chk=JID_4322.chk
%mem=8GB
%nprocshared=4
# B3LYP/6-311++G(d,p) empiricaldispersion=gd3bj scf=xqc pop=npa geom=check

CID_123760303_JID_4322_Energie_kation

1 2

--Link1--
%chk=JID_4322.chk
%mem=8GB
%nprocshared=4
# B3LYP/6-311++G(d,p) empiricaldispersion=gd3bj scf=xqc pop=npa geom=check

CID_123760303_JID_4322_Energie_anion

-1 2
