%chk=JID_4372.chk
%mem=8GB
%nprocshared=4
# opt freq B3LYP/6-31G(d) empiricaldispersion=gd3bj scf=xqc

CID_130684990_JID_4372_neutraal

0 1
C          1.06508        0.05442        0.05294
C          1.48719       -0.49153        1.42412
C          0.81626        0.30429        2.55556
C         -0.67055       -0.02885        2.70524
N         -0.87016       -1.46868        2.96010
C         -0.32976       -2.25104        1.82948
C          1.18646       -1.99355        1.62656
N          1.74720       -2.81001        0.54124
C         -2.31128       -1.72790        3.11393
C         -2.58117       -3.20123        3.51982
C         -3.66933       -2.65398        4.48054
C         -2.81319       -1.34058        4.55348
C         -1.84882       -1.23086        5.73322
C         -3.93592       -3.47089        5.72952
H          1.23920        1.13471       -0.00067
H          0.00717       -0.12435       -0.15932
H          1.65090       -0.40377       -0.75045
H          2.57209       -0.33918        1.50592
H          1.32837        0.08158        3.50125
H          0.93607        1.38105        2.38609
H         -1.22073        0.29285        1.81152
H         -1.06227        0.56450        3.53876
H         -0.88242       -2.03338        0.90563
H         -0.45656       -3.32262        2.02638
H          1.69890       -2.30747        2.54650
H          1.61470       -3.79669        0.76287
H          1.22826       -2.64594       -0.32015
H         -2.95485       -1.37127        2.29873
H         -2.95256       -3.84854        2.71973
H         -1.75894       -3.71757        4.03140
H         -4.62151       -2.47726        3.95645
H         -3.44123       -0.43881        4.53989
H         -1.23613       -0.32780        5.65722
H         -2.40444       -1.16319        6.67446
H         -1.17584       -2.09152        5.79826
H         -4.57280       -2.91416        6.42414
H         -4.45231       -4.40197        5.47417
H         -3.01213       -3.73687        6.25242

--Link1--
%chk=JID_4372.chk
%mem=8GB
%nprocshared=4
# B3LYP/6-311++G(d,p) empiricaldispersion=gd3bj scf=xqc pop=npa geom=check

CID_130684990_JID_4372_Energie_neutraal

0 1

--Link1--
%chk=JID_4372.chk
%mem=8GB
%nprocshared=4
# B3LYP/6-311++G(d,p) empiricaldispersion=gd3bj scf=xqc pop=npa geom=check

CID_130684990_JID_4372_Energie_kation

1 2

--Link1--
%chk=JID_4372.chk
%mem=8GB
%nprocshared=4
# B3LYP/6-311++G(d,p) empiricaldispersion=gd3bj scf=xqc pop=npa geom=check

CID_130684990_JID_4372_Energie_anion

-1 2
