%chk=JID_2754.chk
%mem=8GB
%nprocshared=4
# opt freq B3LYP/6-31G(d) empiricaldispersion=gd3bj scf=xqc

CID_10487252_JID_2754_neutraal

0 1
C         -1.14000        1.21100        0.00700
C          0.25351        1.14437        0.05389
C          0.90435       -0.08939        0.06501
C          0.13027       -1.25117        0.13644
C         -1.26830       -1.19856        0.08990
C         -1.90195        0.04076        0.01624
O         -1.88249       -2.42015        0.15115
C         -3.30069       -2.46288        0.04733
C         -4.03816       -2.09662        1.33542
O         -5.16789       -1.61874        1.35233
N         -3.37522       -2.38827        2.49410
N          2.29268       -0.15303        0.23954
H         -1.63419        2.17908       -0.02018
H          0.82672        2.06727        0.08058
H          0.61714       -2.21897        0.22590
H         -2.98210        0.14250       -0.01133
H         -3.66172       -1.85041       -0.78670
H         -3.57283       -3.49916       -0.18348
H         -2.37271       -2.53724        2.47016
H         -3.79274       -2.07536        3.36013
H          2.70214       -1.02825       -0.07289
H          2.78715        0.65302       -0.13029

--Link1--
%chk=JID_2754.chk
%mem=8GB
%nprocshared=4
# B3LYP/6-311++G(d,p) empiricaldispersion=gd3bj scf=xqc pop=npa geom=check

CID_10487252_JID_2754_Energie_neutraal

0 1

--Link1--
%chk=JID_2754.chk
%mem=8GB
%nprocshared=4
# B3LYP/6-311++G(d,p) empiricaldispersion=gd3bj scf=xqc pop=npa geom=check

CID_10487252_JID_2754_Energie_kation

1 2

--Link1--
%chk=JID_2754.chk
%mem=8GB
%nprocshared=4
# B3LYP/6-311++G(d,p) empiricaldispersion=gd3bj scf=xqc pop=npa geom=check

CID_10487252_JID_2754_Energie_anion

-1 2
