%chk=JID_5546.chk
%mem=8GB
%nprocshared=4
# opt freq B3LYP/6-31G(d) empiricaldispersion=gd3bj scf=xqc

CID_106964737_JID_5546_neutraal

0 1
C          0.90340       -0.02012        0.01626
C          0.33976        0.50770        1.32687
N          0.39707        1.96870        1.33208
C         -0.17143        2.54646        2.56161
C          0.65649        2.31718        3.77812
N          1.81328        2.84664        4.11608
N          2.16008        2.26598        5.31925
C          1.19786        1.42277        5.62376
O          0.20014        1.40353        4.69082
N          1.02992        0.60063        6.67457
C          1.80345        0.67345        7.88239
C          1.78787       -0.69601        8.62416
C          3.30003       -0.51868        8.86593
C          3.32356        0.43033        7.65148
C          1.40645        1.87405        8.72901
H          0.33504        0.35763       -0.84047
H          0.85318       -1.11360       -0.00221
H          1.95156        0.27107       -0.11133
H         -0.69748        0.16884        1.42785
H          0.91935        0.08509        2.15495
H          1.36916        2.27408        1.25166
H         -0.25684        3.62883        2.41068
H         -1.19354        2.18025        2.71413
H          0.09941        0.21377        6.78212
H          1.17525       -0.75128        9.52877
H          1.55314       -1.56247        7.99306
H          3.90450       -1.42434        8.77138
H          3.54254       -0.02874        9.81562
H          3.57773       -0.08204        6.71524
H          3.97300        1.30413        7.75746
H          1.61623        2.81526        8.20953
H          0.33758        1.85015        8.96890
H          1.95498        1.89793        9.67681

--Link1--
%chk=JID_5546.chk
%mem=8GB
%nprocshared=4
# B3LYP/6-311++G(d,p) empiricaldispersion=gd3bj scf=xqc pop=npa geom=check

CID_106964737_JID_5546_Energie_neutraal

0 1

--Link1--
%chk=JID_5546.chk
%mem=8GB
%nprocshared=4
# B3LYP/6-311++G(d,p) empiricaldispersion=gd3bj scf=xqc pop=npa geom=check

CID_106964737_JID_5546_Energie_kation

1 2

--Link1--
%chk=JID_5546.chk
%mem=8GB
%nprocshared=4
# B3LYP/6-311++G(d,p) empiricaldispersion=gd3bj scf=xqc pop=npa geom=check

CID_106964737_JID_5546_Energie_anion

-1 2
