%chk=JID_9533.chk
%mem=8GB
%nprocshared=4
# opt freq B3LYP/6-31G(d) empiricaldispersion=gd3bj scf=xqc

CID_143861637_JID_9533_neutraal

0 1
C          1.05144       -0.05666        0.06437
C          0.48103        0.03573        1.47136
C          0.86521        1.32143        2.21232
C          0.47814        2.63412        1.52257
C         -0.99878        2.77253        1.27822
C         -1.75866        3.75194        1.79431
C         -3.24310        3.99134        1.57793
C         -3.50029        5.44861        1.15826
C         -3.06724        5.71961       -0.28262
C         -3.77335        4.78940       -1.28812
C         -3.60628        3.31820       -0.88150
C         -3.95800        3.05714        0.58856
C         -3.41823        5.14267       -2.77261
C         -1.93568        5.40577       -3.10063
C         -1.11226        4.14695       -3.34784
C         -1.73997        3.30150       -4.45484
C         -3.19574        2.95101       -4.14769
C         -4.03654        4.18951       -3.81642
S         -0.76568        1.77662       -4.69970
H          0.61419        0.69670       -0.59751
H          0.83282       -1.03969       -0.36507
H          2.13790        0.07570        0.07156
H         -0.60890       -0.06860        1.42975
H          0.84873       -0.81789        2.05381
H          0.41170        1.29317        3.21138
H          1.95153        1.32432        2.36832
H          0.84046        3.46610        2.13944
H          0.99987        2.72182        0.56261
H         -1.43621        2.02869        0.61968
H         -1.27949        4.47064        2.46018
H         -3.71114        3.84491        2.56104
H         -4.57117        5.66912        1.25739
H         -2.97997        6.14132        1.83141
H         -1.98074        5.59588       -0.34235
H         -3.28674        6.76512       -0.52995
H         -4.85075        4.99681       -1.19345
H         -2.58676        2.98465       -1.07959
H         -4.27246        2.68982       -1.48160
H         -3.76407        2.00632        0.83495
H         -5.04153        3.19455        0.70787
H         -3.91519        6.11298       -2.93020
H         -1.90044        6.00994       -4.01860
H         -1.45100        6.02471       -2.34099
H         -1.01381        3.57962       -2.41674
H         -0.09687        4.44685       -3.63747
H         -1.70028        3.85968       -5.39785
H         -3.24622        2.23424       -3.32274
H         -3.64827        2.44795       -5.01218
H         -5.04377        3.88468       -3.50892
H         -4.16763        4.75528       -4.74923
H         -0.92680        1.28586       -3.46171

--Link1--
%chk=JID_9533.chk
%mem=8GB
%nprocshared=4
# B3LYP/6-311++G(d,p) empiricaldispersion=gd3bj scf=xqc pop=npa geom=check

CID_143861637_JID_9533_Energie_neutraal

0 1

--Link1--
%chk=JID_9533.chk
%mem=8GB
%nprocshared=4
# B3LYP/6-311++G(d,p) empiricaldispersion=gd3bj scf=xqc pop=npa geom=check

CID_143861637_JID_9533_Energie_kation

1 2

--Link1--
%chk=JID_9533.chk
%mem=8GB
%nprocshared=4
# B3LYP/6-311++G(d,p) empiricaldispersion=gd3bj scf=xqc pop=npa geom=check

CID_143861637_JID_9533_Energie_anion

-1 2
