%chk=JID_5636.chk
%mem=8GB
%nprocshared=4
# opt freq B3LYP/6-31G(d) empiricaldispersion=gd3bj scf=xqc

CID_65771011_JID_5636_neutraal

0 1
C          1.03023       -0.07041       -0.06425
C          0.29670       -0.74687       -1.21615
C          0.96904       -2.04591       -1.66150
N          0.71435       -3.11327       -0.68259
S          1.68968       -4.47810       -0.71402
O          3.06003       -4.04521       -0.83891
O          1.24813       -5.27310        0.40670
N          1.18747       -5.19903       -2.16154
C          2.00547       -4.85173       -3.35417
C          1.28772       -5.30392       -4.62288
C          1.02199       -6.81695       -4.59544
C          0.25383       -7.17249       -3.31342
C          0.96969       -6.66773       -2.06288
C          0.24178       -7.30777       -5.82502
N          0.98345       -7.10173       -7.06427
H          1.02324       -0.68909        0.83779
H          0.54798        0.88152        0.18006
H          2.07140        0.13748       -0.33094
H         -0.74480       -0.93244       -0.92840
H          0.27912       -0.05276       -2.06481
H          0.53967       -2.34791       -2.62211
H          2.04156       -1.87329       -1.79260
H          0.70171       -2.78856        0.28366
H          2.98822       -5.33383       -3.28642
H          2.16467       -3.77237       -3.41670
H          1.90534       -5.03656       -5.48731
H          0.33867       -4.76128       -4.72165
H          1.98965       -7.33783       -4.56811
H         -0.75289       -6.73619       -3.35391
H          0.12866       -8.25956       -3.24162
H          0.33375       -6.90239       -1.20309
H          1.93002       -7.18119       -1.93625
H          0.04101       -8.38040       -5.72223
H         -0.72805       -6.80191       -5.89482
H          0.46558       -7.51897       -7.83772
H          1.03708       -6.10630       -7.27524

--Link1--
%chk=JID_5636.chk
%mem=8GB
%nprocshared=4
# B3LYP/6-311++G(d,p) empiricaldispersion=gd3bj scf=xqc pop=npa geom=check

CID_65771011_JID_5636_Energie_neutraal

0 1

--Link1--
%chk=JID_5636.chk
%mem=8GB
%nprocshared=4
# B3LYP/6-311++G(d,p) empiricaldispersion=gd3bj scf=xqc pop=npa geom=check

CID_65771011_JID_5636_Energie_kation

1 2

--Link1--
%chk=JID_5636.chk
%mem=8GB
%nprocshared=4
# B3LYP/6-311++G(d,p) empiricaldispersion=gd3bj scf=xqc pop=npa geom=check

CID_65771011_JID_5636_Energie_anion

-1 2
