%chk=JID_2988.chk
%mem=8GB
%nprocshared=4
# opt freq B3LYP/6-31G(d) empiricaldispersion=gd3bj scf=xqc

CID_10975903_JID_2988_neutraal

0 1
C          0.94119       -0.05235       -0.06166
C          0.02751        1.13158       -0.34994
C          0.02512        2.17036        0.70436
C          0.49849        3.33248        0.25062
C          0.84481        3.09820       -1.15751
O          1.32262        3.92849       -1.90862
O          0.53738        1.81845       -1.49794
C          0.64568        4.67871        0.85134
C         -0.51134        1.83399        2.02803
O         -1.22138        0.85943        2.22200
O         -0.06926        2.69562        2.97180
C         -0.52963        2.40192        4.29203
H          0.98709       -0.71475       -0.93315
H          0.59362       -0.63535        0.79639
H          1.96875        0.27561        0.13419
H         -0.98691        0.78880       -0.58190
H          0.02397        4.81054        1.74033
H          1.68893        4.85992        1.12754
H          0.34118        5.45472        0.14088
H         -1.62265        2.44065        4.33485
H         -0.16243        1.42313        4.61608
H         -0.12947        3.16335        4.96716

--Link1--
%chk=JID_2988.chk
%mem=8GB
%nprocshared=4
# B3LYP/6-311++G(d,p) empiricaldispersion=gd3bj scf=xqc pop=npa geom=check

CID_10975903_JID_2988_Energie_neutraal

0 1

--Link1--
%chk=JID_2988.chk
%mem=8GB
%nprocshared=4
# B3LYP/6-311++G(d,p) empiricaldispersion=gd3bj scf=xqc pop=npa geom=check

CID_10975903_JID_2988_Energie_kation

1 2

--Link1--
%chk=JID_2988.chk
%mem=8GB
%nprocshared=4
# B3LYP/6-311++G(d,p) empiricaldispersion=gd3bj scf=xqc pop=npa geom=check

CID_10975903_JID_2988_Energie_anion

-1 2
