%chk=JID_7368.chk
%mem=8GB
%nprocshared=4
# opt freq B3LYP/6-31G(d) empiricaldispersion=gd3bj scf=xqc

CID_150503335_JID_7368_neutraal

0 1
C          0.91827       -0.04531       -0.03560
N          0.31700        0.39255       -1.27172
C         -0.30763       -0.29073       -2.26659
O         -0.52172        0.34635       -3.30299
C         -0.77221       -1.75273       -2.11689
C          0.38753       -2.72257       -1.79142
C         -0.11726       -4.17447       -1.70390
C         -0.72319       -4.58816       -3.05125
C         -1.89457       -3.66096       -3.39936
C         -1.38701       -2.21344       -3.47558
C         -2.96625       -3.76037       -2.30526
C         -2.37768       -3.33639       -0.94281
C         -1.19319       -4.26835       -0.60774
C         -1.88558       -1.87654       -1.04969
N         -3.45432       -3.46332        0.05571
N         -3.19298       -3.18665        1.24032
N         -2.94672       -2.93131        2.32333
H          0.29841       -0.77391        0.48233
H          1.05416        0.83033        0.60430
H          1.89585       -0.47923       -0.26009
H          0.56146        1.32720       -1.58069
H          1.17090       -2.64206       -2.55628
H          0.86650       -2.47708       -0.84096
H          0.71813       -4.83959       -1.45747
H         -1.06781       -5.62848       -3.00496
H          0.04063       -4.54040       -3.83708
H         -2.32328       -3.95415       -4.36420
H         -2.21823       -1.55412       -3.76027
H         -0.63971       -2.12938       -4.27625
H         -3.82402       -3.12514       -2.56289
H         -3.35109       -4.78731       -2.25074
H         -1.54098       -5.30515       -0.51213
H         -0.75066       -4.00038        0.36009
H         -1.53315       -1.53428       -0.07327
H         -2.72420       -1.21228       -1.30112

--Link1--
%chk=JID_7368.chk
%mem=8GB
%nprocshared=4
# B3LYP/6-311++G(d,p) empiricaldispersion=gd3bj scf=xqc pop=npa geom=check

CID_150503335_JID_7368_Energie_neutraal

0 1

--Link1--
%chk=JID_7368.chk
%mem=8GB
%nprocshared=4
# B3LYP/6-311++G(d,p) empiricaldispersion=gd3bj scf=xqc pop=npa geom=check

CID_150503335_JID_7368_Energie_kation

1 2

--Link1--
%chk=JID_7368.chk
%mem=8GB
%nprocshared=4
# B3LYP/6-311++G(d,p) empiricaldispersion=gd3bj scf=xqc pop=npa geom=check

CID_150503335_JID_7368_Energie_anion

-1 2
