%chk=JID_6956.chk
%mem=8GB
%nprocshared=4
# opt freq B3LYP/6-31G(d) empiricaldispersion=gd3bj scf=xqc

CID_76284059_JID_6956_neutraal

0 1
C          2.49200        0.00400       -0.01400
C          0.99371       -0.02011       -0.09447
C          0.24614       -0.79595        0.79744
C         -1.14617       -0.84561        0.69636
C         -1.81202       -0.12015       -0.29641
C         -1.06471        0.63325       -1.20772
C          0.32881        0.68505       -1.10495
S         -3.60356       -0.21437       -0.44963
O         -4.08935       -1.07727        0.67718
C         -4.05738        1.51113       -0.08837
C         -3.86125        1.94548        1.36356
C         -2.51791        2.60594        1.70759
C         -2.16058        3.83662        0.87076
N         -3.22325        4.84264        1.00706
C         -3.41853        5.50257        0.05631
S         -3.70845        6.38596       -1.23467
H          2.84219       -0.32191        0.97101
H          2.91847       -0.65969       -0.77248
H          2.86792        1.01991       -0.17432
H          0.74002       -1.37411        1.57561
H         -1.70863       -1.45899        1.39813
H         -1.55319        1.17516       -2.01341
H          0.89599        1.26983       -1.82640
H         -3.57126        2.17049       -0.81035
H         -5.13060        1.55486       -0.30936
H         -4.65145        2.67024        1.59998
H         -4.02270        1.10619        2.04995
H         -2.55617        2.90389        2.76370
H         -1.70602        1.87830        1.63229
H         -1.22149        4.25954        1.24938
H         -1.97991        3.54790       -0.17234

--Link1--
%chk=JID_6956.chk
%mem=8GB
%nprocshared=4
# B3LYP/6-311++G(d,p) empiricaldispersion=gd3bj scf=xqc pop=npa geom=check

CID_76284059_JID_6956_Energie_neutraal

0 1

--Link1--
%chk=JID_6956.chk
%mem=8GB
%nprocshared=4
# B3LYP/6-311++G(d,p) empiricaldispersion=gd3bj scf=xqc pop=npa geom=check

CID_76284059_JID_6956_Energie_kation

1 2

--Link1--
%chk=JID_6956.chk
%mem=8GB
%nprocshared=4
# B3LYP/6-311++G(d,p) empiricaldispersion=gd3bj scf=xqc pop=npa geom=check

CID_76284059_JID_6956_Energie_anion

-1 2
