%chk=JID_7807.chk
%mem=8GB
%nprocshared=4
# opt freq B3LYP/6-31G(d) empiricaldispersion=gd3bj scf=xqc

CID_113822004_JID_7807_neutraal

0 1
C          0.92198       -0.01701        0.06020
C          1.45317       -0.17615       -1.35322
O          2.21912       -1.36964       -1.50642
C          3.51634       -1.29227       -0.90564
C          4.31223       -2.56703       -1.23459
C          4.64097       -2.72627       -2.71957
O          5.45104       -2.79194       -0.38793
C          6.43565       -1.83868       -0.30963
C          7.43909       -1.98445        0.63194
C          8.48184       -1.06146        0.69048
C          8.47056       -0.00372       -0.21314
C          7.43540        0.07882       -1.13653
N          6.42878       -0.81295       -1.19119
N          7.37344        1.14047       -2.03133
N          7.41229       -3.08005        1.56522
O          8.41556       -3.80635        1.60179
O          6.42743       -3.17659        2.30905
H          0.41044       -0.92830        0.38624
H          0.22182        0.82178        0.11514
H          1.73142        0.17206        0.77146
H          0.60560       -0.25545       -2.04198
H          2.03950        0.69752       -1.65905
H          4.02352       -0.39716       -1.27769
H          3.41843       -1.20153        0.18142
H          3.64507       -3.40812       -1.00192
H          5.21164       -1.87920       -3.11014
H          5.24565       -3.62450       -2.88340
H          3.72648       -2.80937       -3.31565
H          9.27884       -1.15228        1.42330
H          9.25070        0.75044       -0.18916
H          6.57514        0.98667       -2.64287
H          8.23240        1.24960       -2.55855

--Link1--
%chk=JID_7807.chk
%mem=8GB
%nprocshared=4
# B3LYP/6-311++G(d,p) empiricaldispersion=gd3bj scf=xqc pop=npa geom=check

CID_113822004_JID_7807_Energie_neutraal

0 1

--Link1--
%chk=JID_7807.chk
%mem=8GB
%nprocshared=4
# B3LYP/6-311++G(d,p) empiricaldispersion=gd3bj scf=xqc pop=npa geom=check

CID_113822004_JID_7807_Energie_kation

1 2

--Link1--
%chk=JID_7807.chk
%mem=8GB
%nprocshared=4
# B3LYP/6-311++G(d,p) empiricaldispersion=gd3bj scf=xqc pop=npa geom=check

CID_113822004_JID_7807_Energie_anion

-1 2
