%chk=JID_10768.chk
%mem=8GB
%nprocshared=4
# opt freq B3LYP/6-31G(d) empiricaldispersion=gd3bj scf=xqc

CID_104850005_JID_10768_neutraal

0 1
C          1.09367        0.03500       -0.00017
O          1.11084        0.81664       -1.19841
C          1.40980        2.12655       -0.93846
C          2.66783        2.58837       -0.52830
C          2.80866        3.93535       -0.15135
C          1.72664        4.81653       -0.25058
C          0.49169        4.36216       -0.71950
C          0.33639        3.01719       -1.06259
C         -0.61397        5.26696       -0.83446
N         -1.50826        6.00103       -0.92441
N          3.81788        1.75197       -0.47876
C          4.78143        1.81397        0.51652
C          5.72917        0.83841        0.30122
C          5.38742        0.19102       -0.90294
C          4.22584        0.78028       -1.37938
C          3.60690        0.45450       -2.70282
C          4.67807       -0.15055       -3.62620
C          5.43471       -1.30085       -2.94743
C          6.07372       -0.86817       -1.63248
O          7.07419       -1.42505       -1.18790
H          0.40292       -0.79875       -0.15855
H          0.74108        0.60333        0.86868
H          2.08346       -0.38406        0.19939
H          3.76853        4.33400        0.17241
H          1.86213        5.86157        0.02460
H         -0.62809        2.64436       -1.40346
H          4.68733        2.51210        1.33753
H          6.58658        0.62929        0.92924
H          3.18312        1.34471       -3.17852
H          2.81188       -0.28603       -2.57006
H          5.39440        0.63155       -3.91069
H          4.20804       -0.50883       -4.54894
H          4.75427       -2.13342       -2.73588
H          6.22482       -1.66080       -3.61497

--Link1--
%chk=JID_10768.chk
%mem=8GB
%nprocshared=4
# B3LYP/6-311++G(d,p) empiricaldispersion=gd3bj scf=xqc pop=npa geom=check

CID_104850005_JID_10768_Energie_neutraal

0 1

--Link1--
%chk=JID_10768.chk
%mem=8GB
%nprocshared=4
# B3LYP/6-311++G(d,p) empiricaldispersion=gd3bj scf=xqc pop=npa geom=check

CID_104850005_JID_10768_Energie_kation

1 2

--Link1--
%chk=JID_10768.chk
%mem=8GB
%nprocshared=4
# B3LYP/6-311++G(d,p) empiricaldispersion=gd3bj scf=xqc pop=npa geom=check

CID_104850005_JID_10768_Energie_anion

-1 2
