%chk=JID_10699.chk
%mem=8GB
%nprocshared=4
# opt freq B3LYP/6-31G(d) empiricaldispersion=gd3bj scf=xqc

CID_43375853_JID_10699_neutraal

0 1
C         -0.72000        1.26100        0.22400
C          0.63596        1.32393       -0.48371
N          1.48098        0.20312       -0.07779
C          0.87169       -1.09040       -0.40070
C         -0.48603       -1.23717        0.29017
C         -1.42635       -0.07477       -0.05144
C         -2.73917       -0.20290        0.72397
O         -3.66784        0.79445        0.31787
C          2.87805        0.30238       -0.54385
C          3.12537        0.20352       -2.04117
C          3.53753       -1.00298       -2.62476
C          3.75256       -1.04843       -4.02717
C          3.50004        0.09895       -4.82811
C          3.17825        1.30486       -4.20393
C          2.97741        1.35570       -2.83049
N          3.77127        0.12703       -6.21384
C          4.22048       -2.26892       -4.56197
C          4.43682       -3.37247       -3.74732
C          4.17802       -3.23302       -2.40431
N          3.73945       -2.08754       -1.84447
H         -1.33778        2.09753       -0.12238
H         -0.57748        1.39441        1.30438
H          0.47024        1.33109       -1.56757
H          1.11401        2.27350       -0.21505
H          1.51382       -1.90821       -0.05293
H          0.73829       -1.20958       -1.48317
H         -0.33572       -1.28792        1.37676
H         -0.94302       -2.18755       -0.01101
H         -1.65820       -0.10990       -1.12497
H         -3.20107       -1.17609        0.52767
H         -2.58427       -0.11861        1.80514
H         -3.37568        1.63859        0.70107
H          3.29833        1.25448       -0.19011
H          3.47778       -0.44675       -0.01105
H          3.07045        2.21611       -4.78646
H          2.70885        2.30365       -2.36993
H          3.59812       -0.75920       -6.67586
H          3.30311        0.88761       -6.69799
H          4.43941       -2.36630       -5.62077
H          4.80099       -4.30910       -4.15241
H          4.32617       -4.05806       -1.71381

--Link1--
%chk=JID_10699.chk
%mem=8GB
%nprocshared=4
# B3LYP/6-311++G(d,p) empiricaldispersion=gd3bj scf=xqc pop=npa geom=check

CID_43375853_JID_10699_Energie_neutraal

0 1

--Link1--
%chk=JID_10699.chk
%mem=8GB
%nprocshared=4
# B3LYP/6-311++G(d,p) empiricaldispersion=gd3bj scf=xqc pop=npa geom=check

CID_43375853_JID_10699_Energie_kation

1 2

--Link1--
%chk=JID_10699.chk
%mem=8GB
%nprocshared=4
# B3LYP/6-311++G(d,p) empiricaldispersion=gd3bj scf=xqc pop=npa geom=check

CID_43375853_JID_10699_Energie_anion

-1 2
