%chk=JID_3638.chk
%mem=8GB
%nprocshared=4
# opt freq B3LYP/6-31G(d) empiricaldispersion=gd3bj scf=xqc

CID_80560413_JID_3638_neutraal

0 1
C          0.94512        0.06618        0.05107
C          0.63463        1.42271        0.66506
C          1.21085        2.59651       -0.12912
C          0.69873        2.74497       -1.56178
C         -0.81724        2.82845       -1.77807
C         -1.59888        4.05056       -1.25852
C         -1.11810        5.39217       -1.83325
N         -1.89362        5.91914       -2.72808
C         -2.98550        5.10753       -2.83018
O         -3.92652        5.23986       -3.59435
N         -2.88045        4.09088       -1.92810
N          0.02957        6.01218       -1.43469
C         -1.81179        4.11931        0.24606
H          0.45118       -0.05843       -0.91699
H          0.59102       -0.73372        0.70930
H          2.02269       -0.06404       -0.09018
H         -0.44818        1.52947        0.78215
H          1.05906        1.45062        1.67600
H          1.04143        3.52430        0.42400
H          2.30222        2.48346       -0.17153
H          1.18458        3.61081       -2.02421
H          1.06287        1.88534       -2.13999
H         -0.95806        2.77644       -2.86857
H         -1.29104        1.91459       -1.39684
H         -3.57937        3.36232       -1.92148
H          0.77445        5.48286       -1.00328
H          0.32928        6.76869       -2.04191
H         -2.27664        3.20100        0.62057
H         -0.88279        4.28798        0.79274
H         -2.47952        4.94829        0.51272

--Link1--
%chk=JID_3638.chk
%mem=8GB
%nprocshared=4
# B3LYP/6-311++G(d,p) empiricaldispersion=gd3bj scf=xqc pop=npa geom=check

CID_80560413_JID_3638_Energie_neutraal

0 1

--Link1--
%chk=JID_3638.chk
%mem=8GB
%nprocshared=4
# B3LYP/6-311++G(d,p) empiricaldispersion=gd3bj scf=xqc pop=npa geom=check

CID_80560413_JID_3638_Energie_kation

1 2

--Link1--
%chk=JID_3638.chk
%mem=8GB
%nprocshared=4
# B3LYP/6-311++G(d,p) empiricaldispersion=gd3bj scf=xqc pop=npa geom=check

CID_80560413_JID_3638_Energie_anion

-1 2
