%chk=JID_9189.chk
%mem=8GB
%nprocshared=4
# opt freq B3LYP/6-31G(d) empiricaldispersion=gd3bj scf=xqc

CID_107385681_JID_9189_neutraal

0 1
C          0.92584       -0.06694        0.00442
C          0.75006       -0.98440        1.17796
C          1.54812       -2.13188        1.28953
C          1.29928       -3.00207        2.33269
C          0.29163       -2.75138        3.25282
C         -0.49202       -1.62102        3.18670
C         -0.26430       -0.73625        2.12903
O          0.13125       -3.76252        4.17108
C          0.85561       -4.87214        3.56352
C          1.97090       -4.27308        2.69091
C         -0.14124       -5.71970        2.74811
O          0.54004       -6.75175        2.05442
C         -0.04265       -7.28034        0.84731
C         -1.52454       -7.69021        0.98584
C         -2.51807       -6.56861        0.67195
C         -2.15693       -5.81757       -0.60609
N         -0.80111       -5.27822       -0.57645
C          0.19064       -6.34066       -0.37233
C          0.79067       -8.55775        0.61283
H          0.62711        0.95538        0.25892
H          0.31686       -0.41389       -0.83602
H          1.97467       -0.02964       -0.30832
H          2.32749       -2.34556        0.56428
H         -1.27824       -1.44266        3.91073
H         -0.89084        0.14877        2.03697
H          1.29606       -5.49065        4.35433
H          2.24303       -4.88779        1.83053
H          2.86260       -4.05570        3.28884
H         -0.87804       -6.16614        3.42543
H         -0.68837       -5.06475        2.07336
H         -1.73933       -8.50507        0.28137
H         -1.72513       -8.08022        1.99066
H         -2.58889       -5.86925        1.51078
H         -3.52015       -7.00129        0.56348
H         -2.86155       -4.99116       -0.75186
H         -2.27116       -6.47723       -1.47485
H         -0.71560       -4.56968        0.15055
H          1.17446       -5.86448       -0.28425
H          0.21567       -6.93363       -1.29567
H          1.85764       -8.31749        0.53191
H          0.68992       -9.24740        1.45916
H          0.48759       -9.08441       -0.29834

--Link1--
%chk=JID_9189.chk
%mem=8GB
%nprocshared=4
# B3LYP/6-311++G(d,p) empiricaldispersion=gd3bj scf=xqc pop=npa geom=check

CID_107385681_JID_9189_Energie_neutraal

0 1

--Link1--
%chk=JID_9189.chk
%mem=8GB
%nprocshared=4
# B3LYP/6-311++G(d,p) empiricaldispersion=gd3bj scf=xqc pop=npa geom=check

CID_107385681_JID_9189_Energie_kation

1 2

--Link1--
%chk=JID_9189.chk
%mem=8GB
%nprocshared=4
# B3LYP/6-311++G(d,p) empiricaldispersion=gd3bj scf=xqc pop=npa geom=check

CID_107385681_JID_9189_Energie_anion

-1 2
