%chk=JID_10846.chk
%mem=8GB
%nprocshared=4
# opt freq B3LYP/6-31G(d) empiricaldispersion=gd3bj scf=xqc

CID_138995420_JID_10846_neutraal

0 1
C         -0.72000        1.26100        0.22400
C         -1.45815       -0.00035       -0.21935
C         -0.77593       -1.29787        0.23109
C          0.74558       -1.28673        0.04518
N          1.36488       -0.00783        0.41743
C          0.75154        1.18215       -0.15597
C          2.36459        0.15315        1.38486
O          2.58873        1.24959        1.90018
C          3.16044       -1.01835        1.78505
C          3.77530       -1.11613        3.02303
S          4.64317       -2.58597        3.14951
C          4.19515       -2.96852        1.54352
N          3.43437       -2.08897        0.93149
C          4.66247       -4.25648        0.86263
C          3.74204       -4.91519       -0.14590
C          4.96539       -4.21113       -0.62251
S         -1.23980       -1.80960        1.89820
O         -2.65280       -1.58375        2.09879
O         -0.64476       -3.09469        2.18540
N         -0.47595       -0.73492        2.91566
H         -1.17683        2.13741       -0.24946
H         -0.82220        1.39527        1.30604
H         -2.49922        0.04511        0.11737
H         -1.49236       -0.00011       -1.31706
H         -1.18151       -2.11558       -0.38122
H          1.17827       -2.12719        0.58477
H          0.97629       -1.42916       -1.01778
H          0.86116        1.11341       -1.24508
H          1.26887        2.09322        0.16038
H          3.74592       -0.40427        3.83633
H          5.27922       -4.90898        1.47134
H          3.72839       -5.99824       -0.18210
H          2.78013       -4.45659       -0.34705
H          4.83968       -3.27063       -1.14825
H          5.79321       -4.80951       -0.98463
H         -1.15766       -0.16065        3.41523
H          0.16862       -1.22568        3.53804

--Link1--
%chk=JID_10846.chk
%mem=8GB
%nprocshared=4
# B3LYP/6-311++G(d,p) empiricaldispersion=gd3bj scf=xqc pop=npa geom=check

CID_138995420_JID_10846_Energie_neutraal

0 1

--Link1--
%chk=JID_10846.chk
%mem=8GB
%nprocshared=4
# B3LYP/6-311++G(d,p) empiricaldispersion=gd3bj scf=xqc pop=npa geom=check

CID_138995420_JID_10846_Energie_kation

1 2

--Link1--
%chk=JID_10846.chk
%mem=8GB
%nprocshared=4
# B3LYP/6-311++G(d,p) empiricaldispersion=gd3bj scf=xqc pop=npa geom=check

CID_138995420_JID_10846_Energie_anion

-1 2
