%chk=JID_5701.chk
%mem=8GB
%nprocshared=4
# opt freq B3LYP/6-31G(d) empiricaldispersion=gd3bj scf=xqc

CID_79202896_JID_5701_neutraal

0 1
C          0.97633       -0.02804        0.09302
C         -0.24531        0.71843       -0.43348
C         -0.05327        0.97459       -1.93550
C         -1.60521        0.00705       -0.16721
C         -2.76481        0.99631       -0.46657
C         -3.62310        1.01471        0.79056
C         -2.64619        0.63407        1.88293
N         -1.82165       -0.37599        1.23896
C         -1.43730       -1.46299        1.99201
O         -1.48619       -1.37643        3.23070
C         -0.99855       -2.82116        1.41201
C         -1.25075       -3.12404       -0.05624
C          0.45554       -3.14833        1.80814
N          0.56666       -3.51248        3.22597
C          1.95586       -3.56386        3.65596
H          1.06256       -1.02201       -0.35246
H          0.94047       -0.11558        1.18194
H          1.89552        0.51862       -0.14682
H         -0.25445        1.69210        0.07548
H         -0.02610        0.03282       -2.49433
H         -0.85814        1.58924       -2.34931
H          0.88750        1.50418       -2.12187
H         -1.70819       -0.85500       -0.82034
H         -2.40326        2.01141       -0.66674
H         -3.34465        0.68097       -1.34057
H         -4.09978        1.98298        0.96626
H         -4.41053        0.25575        0.70731
H         -2.00144        1.47527        2.16121
H         -3.16105        0.26403        2.77448
H         -1.65129       -3.53897        1.93512
H         -2.27450       -2.86696       -0.34521
H         -0.54343       -2.61108       -0.71195
H         -1.12903       -4.19723       -0.24599
H          0.82227       -3.99275        1.21219
H          1.10019       -2.29266        1.59677
H          0.06112       -2.81396        3.78514
H          2.44238       -2.58766        3.55903
H          2.00151       -3.85816        4.70892
H          2.52112       -4.30406        3.08073

--Link1--
%chk=JID_5701.chk
%mem=8GB
%nprocshared=4
# B3LYP/6-311++G(d,p) empiricaldispersion=gd3bj scf=xqc pop=npa geom=check

CID_79202896_JID_5701_Energie_neutraal

0 1

--Link1--
%chk=JID_5701.chk
%mem=8GB
%nprocshared=4
# B3LYP/6-311++G(d,p) empiricaldispersion=gd3bj scf=xqc pop=npa geom=check

CID_79202896_JID_5701_Energie_kation

1 2

--Link1--
%chk=JID_5701.chk
%mem=8GB
%nprocshared=4
# B3LYP/6-311++G(d,p) empiricaldispersion=gd3bj scf=xqc pop=npa geom=check

CID_79202896_JID_5701_Energie_anion

-1 2
