%chk=JID_7809.chk
%mem=8GB
%nprocshared=4
# opt freq B3LYP/6-31G(d) empiricaldispersion=gd3bj scf=xqc

CID_140139848_JID_7809_neutraal

0 1
C          1.06017       -0.04159       -0.06819
C          0.43582       -0.19862        1.27968
C         -0.03449        0.82612        2.00697
C         -0.63671        0.63729        3.32913
C         -1.97457        0.90122        3.62137
C         -2.45364        0.74053        4.94308
C         -1.63136        0.32236        5.97721
C         -0.29554        0.05347        5.68647
C          0.19469        0.20957        4.38156
N         -3.84215        1.05856        4.95360
C         -4.17364        1.39004        3.61659
N         -5.37260        1.69064        3.26306
N         -3.04297        1.33205        2.81774
C         -3.01118        1.22031        1.37894
C         -4.64236        0.98695        6.09990
O         -4.25180        0.60106        7.20629
C         -6.08308        1.40741        5.95114
H          1.08935        1.00384       -0.39124
H          0.49316       -0.61236       -0.80987
H          2.08578       -0.42253       -0.05036
H          0.37242       -1.21560        1.66299
H          0.01421        1.85036        1.64710
H         -1.99238        0.19592        6.99175
H          0.37316       -0.27580        6.47886
H          1.24790        0.00413        4.19409
H         -5.39926        1.92066        2.27002
H         -3.96799        1.49483        0.92499
H         -2.27011        1.89919        0.94706
H         -2.79371        0.19315        1.06681
H         -6.14761        2.43633        5.58891
H         -6.61542        0.71617        5.29337
H         -6.56866        1.37459        6.93217

--Link1--
%chk=JID_7809.chk
%mem=8GB
%nprocshared=4
# B3LYP/6-311++G(d,p) empiricaldispersion=gd3bj scf=xqc pop=npa geom=check

CID_140139848_JID_7809_Energie_neutraal

0 1

--Link1--
%chk=JID_7809.chk
%mem=8GB
%nprocshared=4
# B3LYP/6-311++G(d,p) empiricaldispersion=gd3bj scf=xqc pop=npa geom=check

CID_140139848_JID_7809_Energie_kation

1 2

--Link1--
%chk=JID_7809.chk
%mem=8GB
%nprocshared=4
# B3LYP/6-311++G(d,p) empiricaldispersion=gd3bj scf=xqc pop=npa geom=check

CID_140139848_JID_7809_Energie_anion

-1 2
