%chk=JID_9774.chk
%mem=8GB
%nprocshared=4
# opt freq B3LYP/6-31G(d) empiricaldispersion=gd3bj scf=xqc

CID_104096113_JID_9774_neutraal

0 1
C          0.98787        0.09652       -0.02318
C          0.75289       -0.39917        1.40386
C          1.12529        0.62240        2.44964
N          0.98199        1.91523        2.22951
C          1.33994        2.54714        3.37449
C          1.74242        1.63724        4.35178
N          1.62434        0.38317        3.74126
C          2.00205       -0.94388        4.29601
C          0.84051       -1.96051        4.18858
C          3.26193       -1.46991        3.57055
C          2.37212       -0.94182        5.79998
C          2.14259        2.11456        5.61402
C          2.12381        3.49756        5.86001
C          1.71866        4.41167        4.88690
C          1.32987        3.92863        3.63080
C          1.69479        5.89019        5.17172
N          2.70535        6.59867        4.39767
O         -0.59527       -0.84402        1.62397
C         -1.61271        0.12714        1.41063
H          0.45074        1.02663       -0.23694
H          0.64012       -0.64775       -0.74753
H          2.05241        0.28580       -0.19876
H          1.37438       -1.28770        1.50067
H          0.70889       -2.35618        3.18102
H          1.01845       -2.84200        4.81677
H         -0.10680       -1.51330        4.51095
H          4.10140       -0.77514        3.69521
H          3.57135       -2.44206        3.97215
H          3.12103       -1.60217        2.49651
H          3.28968       -0.37575        5.99030
H          1.55570       -0.55122        6.41685
H          2.57894       -1.95840        6.15923
H          2.45766        1.47175        6.42336
H          2.43217        3.85177        6.84240
H          1.01902        4.61082        2.84525
H          0.70096        6.28763        4.93605
H          1.86312        6.07507        6.23900
H          2.74169        7.56894        4.70115
H          3.61874        6.19448        4.59724
H         -1.50551        0.98162        2.08318
H         -1.63603        0.45680        0.36897
H         -2.57440       -0.34666        1.62869

--Link1--
%chk=JID_9774.chk
%mem=8GB
%nprocshared=4
# B3LYP/6-311++G(d,p) empiricaldispersion=gd3bj scf=xqc pop=npa geom=check

CID_104096113_JID_9774_Energie_neutraal

0 1

--Link1--
%chk=JID_9774.chk
%mem=8GB
%nprocshared=4
# B3LYP/6-311++G(d,p) empiricaldispersion=gd3bj scf=xqc pop=npa geom=check

CID_104096113_JID_9774_Energie_kation

1 2

--Link1--
%chk=JID_9774.chk
%mem=8GB
%nprocshared=4
# B3LYP/6-311++G(d,p) empiricaldispersion=gd3bj scf=xqc pop=npa geom=check

CID_104096113_JID_9774_Energie_anion

-1 2
