%chk=JID_9124.chk
%mem=8GB
%nprocshared=4
# opt freq B3LYP/6-31G(d) empiricaldispersion=gd3bj scf=xqc

CID_61449426_JID_9124_neutraal

0 1
C          0.90323       -0.01772        0.01793
C          1.01048       -1.02889        1.15448
N          1.10414       -0.38360        2.47247
C         -0.17424        0.05421        3.03820
C         -0.66618       -0.60413        4.33659
O         -1.31192        0.05354        5.15883
N         -0.52895       -1.93655        4.57744
C          0.03263       -2.96379        3.73930
C          2.33921        0.11060        2.79652
O          3.33763       -0.13772        2.11305
N          2.57208        0.89866        3.85349
C          1.95170        1.14745        5.16362
C          2.13678       -0.03120        6.11558
C          3.58235       -0.22770        6.51020
O          4.05621        0.19098        7.55923
N          4.35572       -0.89445        5.60814
C          2.55616        2.40711        5.79843
O          2.14419        2.98268        6.79212
O          3.68618        2.82911        5.18525
H          0.01702        0.61445        0.13322
H          0.82875       -0.53649       -0.94282
H          1.77797        0.63917       -0.01749
H          0.13938       -1.69071        1.13767
H          1.89015       -1.66341        0.99472
H         -0.12357        1.13767        3.18688
H         -0.97038       -0.11356        2.30218
H         -0.96118       -2.22477        5.44834
H          1.09197       -2.76618        3.56751
H         -0.07356       -3.92239        4.25365
H         -0.51551       -2.99944        2.79660
H          3.52690        1.25007        3.81453
H          0.89941        1.37295        5.01040
H          1.56135        0.12641        7.03584
H          1.78050       -0.96480        5.67077
H          4.06026       -1.06373        4.65324
H          5.34284       -0.97951        5.81587
H          3.98608        3.57690        5.74679

--Link1--
%chk=JID_9124.chk
%mem=8GB
%nprocshared=4
# B3LYP/6-311++G(d,p) empiricaldispersion=gd3bj scf=xqc pop=npa geom=check

CID_61449426_JID_9124_Energie_neutraal

0 1

--Link1--
%chk=JID_9124.chk
%mem=8GB
%nprocshared=4
# B3LYP/6-311++G(d,p) empiricaldispersion=gd3bj scf=xqc pop=npa geom=check

CID_61449426_JID_9124_Energie_kation

1 2

--Link1--
%chk=JID_9124.chk
%mem=8GB
%nprocshared=4
# B3LYP/6-311++G(d,p) empiricaldispersion=gd3bj scf=xqc pop=npa geom=check

CID_61449426_JID_9124_Energie_anion

-1 2
