%chk=JID_9125.chk
%mem=8GB
%nprocshared=4
# opt freq B3LYP/6-31G(d) empiricaldispersion=gd3bj scf=xqc

CID_114137241_JID_9125_neutraal

0 1
C          0.94913        0.08253        0.02452
C         -0.20246       -0.80195        0.48888
C          0.14858       -2.27168        0.28429
O         -0.44723       -0.62467        1.88603
C         -1.15992        0.56956        2.20063
C         -1.41855        0.60469        3.70442
C         -0.15780        0.43659        4.56248
C          0.90255        1.52173        4.36078
N          0.38281        2.80864        4.80254
C          1.35165        3.80487        4.89039
N          2.27872        3.92399        3.94952
C          3.16411        4.89790        4.12600
N          3.16380        5.73471        5.15749
C          2.19779        5.52302        6.03600
N          1.26379        4.58271        5.95665
O          2.20895        6.38789        7.11087
C          1.24459        6.06298        8.10332
N          4.15340        5.03984        3.13112
N          4.83149        6.27761        2.99710
H          0.68209        1.14208        0.08298
H          1.22338       -0.13545       -1.01248
H          1.83080       -0.05658        0.65979
H         -1.11114       -0.57602       -0.08186
H          1.03400       -2.54931        0.86734
H         -0.66976       -2.91107        0.63295
H          0.33872       -2.49398       -0.77016
H         -0.59023        1.45071        1.89214
H         -2.11858        0.57479        1.66942
H         -1.93729        1.53434        3.96400
H         -2.09731       -0.21935        3.95852
H         -0.46035        0.41748        5.61738
H          0.29639       -0.54019        4.35673
H          1.78307        1.24759        4.95657
H          1.21466        1.56387        3.31129
H         -0.05909        2.78478        5.71676
H          0.22525        6.16767        7.71590
H          1.41017        5.05770        8.50700
H          1.36101        6.77329        8.92765
H          3.83450        4.56576        2.28678
H          4.14714        7.03178        2.88119
H          5.27625        6.49386        3.89732

--Link1--
%chk=JID_9125.chk
%mem=8GB
%nprocshared=4
# B3LYP/6-311++G(d,p) empiricaldispersion=gd3bj scf=xqc pop=npa geom=check

CID_114137241_JID_9125_Energie_neutraal

0 1

--Link1--
%chk=JID_9125.chk
%mem=8GB
%nprocshared=4
# B3LYP/6-311++G(d,p) empiricaldispersion=gd3bj scf=xqc pop=npa geom=check

CID_114137241_JID_9125_Energie_kation

1 2

--Link1--
%chk=JID_9125.chk
%mem=8GB
%nprocshared=4
# B3LYP/6-311++G(d,p) empiricaldispersion=gd3bj scf=xqc pop=npa geom=check

CID_114137241_JID_9125_Energie_anion

-1 2
