%chk=JID_5170.chk
%mem=8GB
%nprocshared=4
# opt freq B3LYP/6-31G(d) empiricaldispersion=gd3bj scf=xqc

CID_64553023_JID_5170_neutraal

0 1
C          0.98845       -0.06714        0.07320
N          0.15908       -0.29611        1.27756
C          0.16143        0.79670        2.21606
C          1.11555        0.93968        3.22371
C          1.08518        2.05947        4.05506
C          0.14515        3.06849        3.83727
C         -0.73691        2.99686        2.75812
C         -0.75146        1.83359        1.98385
N         -1.73193        3.96794        2.59398
S          0.28663       -1.88403        1.89744
O         -0.15851       -2.78431        0.85159
O          1.60440       -2.04863        2.47744
C         -0.88378       -2.01294        3.28552
C         -2.32766       -1.85519        2.88931
C         -1.79302       -3.21204        3.26221
H          0.70494        0.87368       -0.41066
H          0.83024       -0.85974       -0.66426
H          2.05117       -0.02186        0.33151
H          1.88469        0.19114        3.38889
H          1.79696        2.14834        4.87204
H          0.12160        3.92334        4.50841
H         -1.47893        1.72718        1.18340
H         -1.47411        4.88307        2.95145
H         -2.10333        4.01964        1.64989
H         -0.55390       -1.62485        4.23714
H         -2.98725       -1.35558        3.58912
H         -2.57268       -1.67617        1.84792
H         -1.68772       -3.95095        2.47538
H         -2.09374       -3.63419        4.21424

--Link1--
%chk=JID_5170.chk
%mem=8GB
%nprocshared=4
# B3LYP/6-311++G(d,p) empiricaldispersion=gd3bj scf=xqc pop=npa geom=check

CID_64553023_JID_5170_Energie_neutraal

0 1

--Link1--
%chk=JID_5170.chk
%mem=8GB
%nprocshared=4
# B3LYP/6-311++G(d,p) empiricaldispersion=gd3bj scf=xqc pop=npa geom=check

CID_64553023_JID_5170_Energie_kation

1 2

--Link1--
%chk=JID_5170.chk
%mem=8GB
%nprocshared=4
# B3LYP/6-311++G(d,p) empiricaldispersion=gd3bj scf=xqc pop=npa geom=check

CID_64553023_JID_5170_Energie_anion

-1 2
