%chk=JID_6598.chk
%mem=8GB
%nprocshared=4
# opt freq B3LYP/6-31G(d) empiricaldispersion=gd3bj scf=xqc

CID_71154625_JID_6598_neutraal

0 1
C          0.96062        0.04509       -0.08010
C          0.77346       -1.42191        0.25475
C          1.34655       -2.33559       -0.81364
O          0.58992       -2.82672       -1.66091
C          2.83921       -2.71571       -0.78923
C          3.48009       -2.73875       -2.19667
C          3.52437       -1.49098       -3.11423
C          4.16145       -0.23618       -2.51187
C          4.23105        0.90172       -3.53659
N          2.89234        1.21466       -4.05060
C          2.29594        0.04621       -4.71303
C          2.16854       -1.12560       -3.73561
C          2.94197        2.35327       -4.96633
N          3.58901       -1.96744        0.23383
C          4.74869       -2.67954        0.76921
C          6.06338       -2.03234        0.35940
H          2.01063        0.34102       -0.03305
H          0.41182        0.66587        0.63538
H          0.58776        0.27579       -1.08248
H          1.19588       -1.67137        1.23283
H         -0.29965       -1.63806        0.32727
H          2.79706       -3.75978       -0.44413
H          4.51367       -3.09290       -2.08459
H          2.98066       -3.53475       -2.76782
H          4.16809       -1.78904       -3.95633
H          5.17092       -0.45780       -2.15110
H          3.57389        0.12171       -1.66327
H          4.91471        0.62987       -4.35126
H          4.65200        1.78285       -3.03696
H          1.29170        0.29685       -5.07625
H          2.89113       -0.25896       -5.58361
H          1.74896       -1.99088       -4.26185
H          1.45433       -0.83777       -2.96072
H          3.56595        2.15237       -5.84440
H          1.93476        2.61419       -5.31017
H          3.33681        3.23911       -4.45651
H          3.85201       -1.04278       -0.09176
H          4.67881       -2.64700        1.86242
H          4.76047       -3.74001        0.49269
H          6.09848       -0.97922        0.65791
H          6.90021       -2.54492        0.84496
H          6.21847       -2.09075       -0.72154

--Link1--
%chk=JID_6598.chk
%mem=8GB
%nprocshared=4
# B3LYP/6-311++G(d,p) empiricaldispersion=gd3bj scf=xqc pop=npa geom=check

CID_71154625_JID_6598_Energie_neutraal

0 1

--Link1--
%chk=JID_6598.chk
%mem=8GB
%nprocshared=4
# B3LYP/6-311++G(d,p) empiricaldispersion=gd3bj scf=xqc pop=npa geom=check

CID_71154625_JID_6598_Energie_kation

1 2

--Link1--
%chk=JID_6598.chk
%mem=8GB
%nprocshared=4
# B3LYP/6-311++G(d,p) empiricaldispersion=gd3bj scf=xqc pop=npa geom=check

CID_71154625_JID_6598_Energie_anion

-1 2
