%chk=JID_63.chk
%mem=8GB
%nprocshared=4
# opt freq B3LYP/6-31G(d) empiricaldispersion=gd3bj scf=xqc

CID_148035835_JID_63_neutraal

0 1
C         -0.02900        0.88300        0.00000
C         -0.63857       -0.47317       -0.23514
C          0.82604       -0.35352        0.14624
C          1.85211       -0.67095       -0.90587
O          2.49461       -1.71513       -0.87483
N          1.25738       -0.73276        1.50916
C         -1.66904       -1.01291        0.71694
C         -3.07073       -0.44880        0.45845
C         -3.69984       -0.82309       -0.88583
N         -3.90570       -2.25888       -1.02610
H         -0.30264        1.42204        0.90111
H          0.11628        1.52591       -0.86022
H         -0.84469       -0.77082       -1.25765
H          1.99950        0.08196       -1.69766
H          1.48493       -1.73155        1.50127
H          2.14356       -0.27927        1.73361
H         -1.67508       -2.10672        0.65702
H         -1.40144       -0.76415        1.75111
H         -3.73344       -0.78687        1.26563
H         -3.03420        0.64578        0.52723
H         -4.67393       -0.32727       -0.96375
H         -3.09063       -0.45447       -1.71728
H         -4.34945       -2.45218       -1.92317
H         -3.00924       -2.74267       -1.04455

--Link1--
%chk=JID_63.chk
%mem=8GB
%nprocshared=4
# B3LYP/6-311++G(d,p) empiricaldispersion=gd3bj scf=xqc pop=npa geom=check

CID_148035835_JID_63_Energie_neutraal

0 1

--Link1--
%chk=JID_63.chk
%mem=8GB
%nprocshared=4
# B3LYP/6-311++G(d,p) empiricaldispersion=gd3bj scf=xqc pop=npa geom=check

CID_148035835_JID_63_Energie_kation

1 2

--Link1--
%chk=JID_63.chk
%mem=8GB
%nprocshared=4
# B3LYP/6-311++G(d,p) empiricaldispersion=gd3bj scf=xqc pop=npa geom=check

CID_148035835_JID_63_Energie_anion

-1 2
