%chk=JID_566.chk
%mem=8GB
%nprocshared=4
# opt freq B3LYP/6-31G(d) empiricaldispersion=gd3bj scf=xqc

CID_124164087_JID_566_neutraal

0 1
C          1.01402       -0.09891       -0.00448
C          0.77560        1.36450       -0.34358
C          1.10571        1.72022       -1.79657
C          0.25484        1.01012       -2.86078
C         -1.29014        1.20673       -2.81078
N         -1.83700        2.57395       -2.98518
C         -3.18803        2.49761       -3.55598
C         -1.89807        3.32412       -1.73026
O          0.82739        1.19583       -4.16919
C          0.62533        2.46761       -4.76532
H          0.30967       -0.75215       -0.52752
H          0.87823       -0.26159        1.06967
H          2.03207       -0.40352       -0.26658
H         -0.26018        1.62194       -0.10363
H          1.40787        1.97754        0.31017
H          1.04418        2.80579       -1.92142
H          2.16210        1.48428       -1.98503
H          0.40100       -0.06450       -2.69480
H         -1.67084        0.58533       -3.63406
H         -1.68836        0.75845       -1.89136
H         -3.87767        1.94267       -2.90934
H         -3.59698        3.50124       -3.71901
H         -3.16573        2.01264       -4.53844
H         -2.47937        2.80202       -0.96177
H         -0.90341        3.53255       -1.33459
H         -2.35839        4.30610       -1.89271
H         -0.38311        2.53830       -5.17976
H          0.82012        3.28843       -4.07132
H          1.32581        2.55918       -5.60072

--Link1--
%chk=JID_566.chk
%mem=8GB
%nprocshared=4
# B3LYP/6-311++G(d,p) empiricaldispersion=gd3bj scf=xqc pop=npa geom=check

CID_124164087_JID_566_Energie_neutraal

0 1

--Link1--
%chk=JID_566.chk
%mem=8GB
%nprocshared=4
# B3LYP/6-311++G(d,p) empiricaldispersion=gd3bj scf=xqc pop=npa geom=check

CID_124164087_JID_566_Energie_kation

1 2

--Link1--
%chk=JID_566.chk
%mem=8GB
%nprocshared=4
# B3LYP/6-311++G(d,p) empiricaldispersion=gd3bj scf=xqc pop=npa geom=check

CID_124164087_JID_566_Energie_anion

-1 2
