%chk=JID_2163.chk
%mem=8GB
%nprocshared=4
# opt freq B3LYP/6-31G(d) empiricaldispersion=gd3bj scf=xqc

CID_130742396_JID_2163_neutraal

0 1
C          1.03723       -0.01282        0.09192
C          0.58714        1.45275        0.22975
C          1.14358        2.20900       -0.97783
C         -0.96114        1.59647        0.36554
C         -1.50655        0.58222        1.39815
C         -1.50474        3.00800        0.76330
C         -1.58149        4.08228       -0.34290
C         -0.70167        5.32091       -0.15795
C         -0.54133        5.67947        1.31022
C         -0.03531        4.45186        2.04024
O         -1.01929        3.43030        2.03657
N         -1.22464        6.46405       -0.91273
H          0.51664       -0.51114       -0.73285
H          0.85578       -0.57716        1.01174
H          2.11406       -0.07701       -0.10111
H          1.06535        1.84497        1.13461
H          0.60593        1.94903       -1.89554
H          1.08532        3.28352       -0.83428
H          2.20379        1.98003       -1.13421
H         -1.41420        1.33001       -0.59944
H         -1.00193        0.68756        2.36438
H         -2.58151        0.71731        1.56110
H         -1.38177       -0.44807        1.05081
H         -2.56820        2.81647        0.97015
H         -2.62847        4.42259       -0.36332
H         -1.42269        3.63929       -1.33356
H          0.29297        5.12416       -0.56533
H          0.16783        6.50664        1.42968
H         -1.50366        5.99467        1.73304
H          0.16864        4.70340        3.08601
H          0.89912        4.07945        1.60896
H         -1.37417        6.19616       -1.88505
H         -2.14007        6.72957       -0.54940

--Link1--
%chk=JID_2163.chk
%mem=8GB
%nprocshared=4
# B3LYP/6-311++G(d,p) empiricaldispersion=gd3bj scf=xqc pop=npa geom=check

CID_130742396_JID_2163_Energie_neutraal

0 1

--Link1--
%chk=JID_2163.chk
%mem=8GB
%nprocshared=4
# B3LYP/6-311++G(d,p) empiricaldispersion=gd3bj scf=xqc pop=npa geom=check

CID_130742396_JID_2163_Energie_kation

1 2

--Link1--
%chk=JID_2163.chk
%mem=8GB
%nprocshared=4
# B3LYP/6-311++G(d,p) empiricaldispersion=gd3bj scf=xqc pop=npa geom=check

CID_130742396_JID_2163_Energie_anion

-1 2
