%chk=JID_8482.chk
%mem=8GB
%nprocshared=4
# opt freq B3LYP/6-31G(d) empiricaldispersion=gd3bj scf=xqc

CID_18778584_JID_8482_neutraal

0 1
C         -1.43100        0.32400       -0.23100
C         -1.30804       -0.90982        0.65566
C          0.12176       -1.44395        0.68141
C          1.13230       -0.36441        1.10735
C          0.99723        0.87340        0.20201
C         -0.43510        1.40424        0.17564
C          2.56005       -0.94553        1.08120
N          3.48524       -0.07137        1.79732
C          4.84534       -0.39056        1.85928
C          5.73974        0.59960        2.29902
C          7.10407        0.33637        2.45754
C          7.58878       -0.94258        2.19176
C          6.71607       -1.95830        1.80314
C          5.35273       -1.67943        1.64906
S          9.30229       -1.30284        2.42814
O          9.89976       -0.27746        3.25147
O          9.45981       -2.71089        2.70891
N          9.92272       -1.06910        0.88521
H         -2.45080        0.72069       -0.17294
H         -1.25663        0.04149       -1.27652
H         -1.62229       -0.65970        1.67644
H         -1.98650       -1.69131        0.29533
H          0.38316       -1.82551       -0.31407
H          0.17185       -2.29538        1.37072
H          0.89505       -0.06397        2.13758
H          1.30676        0.62146       -0.82036
H          1.65937        1.67597        0.54434
H         -0.50197        2.24720       -0.52143
H         -0.69878        1.78939        1.16840
H          2.54244       -1.92644        1.57092
H          2.89006       -1.08564        0.04435
H          3.34330        0.91740        1.61037
H          5.37209        1.59642        2.53302
H          7.76827        1.12699        2.79802
H          7.07979       -2.96857        1.63063
H          4.69829       -2.49854        1.36684
H         10.59468       -0.30154        0.89748
H         10.30448       -1.94643        0.53127

--Link1--
%chk=JID_8482.chk
%mem=8GB
%nprocshared=4
# B3LYP/6-311++G(d,p) empiricaldispersion=gd3bj scf=xqc pop=npa geom=check

CID_18778584_JID_8482_Energie_neutraal

0 1

--Link1--
%chk=JID_8482.chk
%mem=8GB
%nprocshared=4
# B3LYP/6-311++G(d,p) empiricaldispersion=gd3bj scf=xqc pop=npa geom=check

CID_18778584_JID_8482_Energie_kation

1 2

--Link1--
%chk=JID_8482.chk
%mem=8GB
%nprocshared=4
# B3LYP/6-311++G(d,p) empiricaldispersion=gd3bj scf=xqc pop=npa geom=check

CID_18778584_JID_8482_Energie_anion

-1 2
