%chk=JID_5279.chk
%mem=8GB
%nprocshared=4
# opt freq B3LYP/6-31G(d) empiricaldispersion=gd3bj scf=xqc

CID_14628034_JID_5279_neutraal

0 1
C         -2.78600        0.49700       -0.00900
C         -1.35959        0.32576        0.37480
C         -0.70837       -0.86027        0.67791
S          0.90761       -0.51618        1.14926
C          0.63542        1.15043        0.86636
N         -0.57066        1.46205        0.46796
N          1.60976        2.05911        1.03314
C         -1.23065       -2.26247        0.69751
C         -1.25874       -2.94706       -0.67853
C          0.13819       -3.34592       -1.21762
C          0.11841       -4.75306       -1.84582
C         -0.61241       -4.79873       -3.18489
C         -0.01707       -3.80182       -4.17203
C          0.00276       -2.38940       -3.59918
C          0.69498       -2.33299       -2.23656
H         -3.42837        0.39422        0.87094
H         -2.95679        1.48673       -0.44422
H         -3.08547       -0.25088       -0.74922
H          1.44360        2.95263        0.58507
H          2.56663        1.73526        0.97882
H         -0.66564       -2.88037        1.40670
H         -2.25769       -2.23588        1.08539
H         -1.86604       -3.85320       -0.55530
H         -1.79563       -2.32013       -1.39857
H          0.83477       -3.39240       -0.37081
H          1.15395       -5.08489       -1.99872
H         -0.33366       -5.47257       -1.15281
H         -1.67736       -4.58329       -3.03865
H         -0.54736       -5.80988       -3.60274
H         -0.59245       -3.81510       -5.10450
H          1.00611       -4.10641       -4.42518
H         -1.02399       -2.01594       -3.51384
H          0.51999       -1.72096       -4.29731
H          0.63217       -1.31224       -1.84854
H          1.76323       -2.54082       -2.38293

--Link1--
%chk=JID_5279.chk
%mem=8GB
%nprocshared=4
# B3LYP/6-311++G(d,p) empiricaldispersion=gd3bj scf=xqc pop=npa geom=check

CID_14628034_JID_5279_Energie_neutraal

0 1

--Link1--
%chk=JID_5279.chk
%mem=8GB
%nprocshared=4
# B3LYP/6-311++G(d,p) empiricaldispersion=gd3bj scf=xqc pop=npa geom=check

CID_14628034_JID_5279_Energie_kation

1 2

--Link1--
%chk=JID_5279.chk
%mem=8GB
%nprocshared=4
# B3LYP/6-311++G(d,p) empiricaldispersion=gd3bj scf=xqc pop=npa geom=check

CID_14628034_JID_5279_Energie_anion

-1 2
