%chk=JID_10850.chk
%mem=8GB
%nprocshared=4
# opt freq B3LYP/6-31G(d) empiricaldispersion=gd3bj scf=xqc

CID_103767435_JID_10850_neutraal

0 1
C          2.53000       -0.71200       -0.31700
C          2.56776        0.80815       -0.40048
C          1.19012        1.35507       -0.76899
C          0.07729        0.76459        0.06235
C          0.24533       -0.44497        0.76367
C          1.57254       -1.16619        0.78336
C         -0.81523       -0.95537        1.53055
C         -2.04025       -0.28994        1.58347
C         -2.21566        0.88322        0.85070
C         -1.16403        1.41731        0.10203
C         -3.48154        1.63305        0.91694
O         -3.52545        2.69933        1.52531
N         -4.60210        1.14608        0.29525
C         -4.83359       -0.16374       -0.29282
C         -5.42965       -1.15629        0.71307
S         -7.24940       -1.34622        0.69123
C         -7.86496        0.34321        1.01660
C         -7.82836        0.78357        2.48248
C         -6.56140        1.51314        2.90594
O         -6.32135        2.60223        2.02365
H          2.20941       -1.12354       -1.28255
H          3.53285       -1.10603       -0.11777
H          2.88901        1.22138        0.56418
H          3.30240        1.12767       -1.14800
H          1.20344        2.44558       -0.65413
H          0.98078        1.13519       -1.82331
H          1.40970       -2.24619        0.68498
H          2.03844       -0.98902        1.76096
H         -0.68020       -1.86829        2.10755
H         -2.83490       -0.67632        2.21271
H         -1.31069        2.35147       -0.43675
H         -5.40880        1.75419        0.42508
H         -5.48273       -0.02658       -1.16385
H         -3.87704       -0.54978       -0.65878
H         -5.04929       -2.15299        0.46191
H         -5.11006       -0.95417        1.73787
H         -7.41023        1.06277        0.33310
H         -8.92150        0.29921        0.72468
H         -8.65858        1.49045        2.61762
H         -8.02520       -0.05668        3.15818
H         -6.67655        1.91158        3.91901
H         -5.69703        0.84652        2.90249
H         -5.42502        2.94973        2.23153

--Link1--
%chk=JID_10850.chk
%mem=8GB
%nprocshared=4
# B3LYP/6-311++G(d,p) empiricaldispersion=gd3bj scf=xqc pop=npa geom=check

CID_103767435_JID_10850_Energie_neutraal

0 1

--Link1--
%chk=JID_10850.chk
%mem=8GB
%nprocshared=4
# B3LYP/6-311++G(d,p) empiricaldispersion=gd3bj scf=xqc pop=npa geom=check

CID_103767435_JID_10850_Energie_kation

1 2

--Link1--
%chk=JID_10850.chk
%mem=8GB
%nprocshared=4
# B3LYP/6-311++G(d,p) empiricaldispersion=gd3bj scf=xqc pop=npa geom=check

CID_103767435_JID_10850_Energie_anion

-1 2
