%chk=JID_9371.chk
%mem=8GB
%nprocshared=4
# opt freq B3LYP/6-31G(d) empiricaldispersion=gd3bj scf=xqc

CID_81426659_JID_9371_neutraal

0 1
C          1.02233       -0.06930       -0.06855
C          0.85798        1.01555        1.00198
C          1.40492        2.36852        0.50653
C          0.71253        2.89687       -0.73995
N         -0.49408        3.37122       -0.62302
O         -0.98626        3.78352       -1.87270
N          1.38922        2.83864       -1.93271
N         -0.56191        1.03688        1.38338
C         -0.78167        1.22687        2.82246
C         -0.53564        2.63412        3.32116
C         -1.41122        3.65974        2.90975
C         -1.22523        4.96770        3.33885
C         -0.16452        5.26419        4.18591
C          0.71441        4.25290        4.60580
C          0.53904        2.91573        4.17757
N          1.38726        1.94299        4.57763
C          2.40993        2.26488        5.39922
C          2.65074        3.54100        5.86259
C          1.78738        4.54878        5.45734
H          0.40018        0.12240       -0.94976
H          0.74130       -1.05165        0.32848
H          2.06519       -0.13395       -0.39750
H          1.47278        0.70016        1.85490
H          1.31812        3.13327        1.28474
H          2.47672        2.26802        0.29377
H         -1.84472        4.17887       -1.63319
H          2.00523        2.04671       -2.06439
H          0.75430        2.99543       -2.71107
H         -1.03983        1.77693        0.86252
H         -1.83391        0.98973        3.02801
H         -0.22099        0.47791        3.39377
H         -2.23877        3.43148        2.24087
H         -1.90137        5.75210        3.00986
H         -0.02427        6.29112        4.51519
H          3.05126        1.43533        5.68276
H          3.48655        3.74670        6.52083
H          1.95454        5.56436        5.80706

--Link1--
%chk=JID_9371.chk
%mem=8GB
%nprocshared=4
# B3LYP/6-311++G(d,p) empiricaldispersion=gd3bj scf=xqc pop=npa geom=check

CID_81426659_JID_9371_Energie_neutraal

0 1

--Link1--
%chk=JID_9371.chk
%mem=8GB
%nprocshared=4
# B3LYP/6-311++G(d,p) empiricaldispersion=gd3bj scf=xqc pop=npa geom=check

CID_81426659_JID_9371_Energie_kation

1 2

--Link1--
%chk=JID_9371.chk
%mem=8GB
%nprocshared=4
# B3LYP/6-311++G(d,p) empiricaldispersion=gd3bj scf=xqc pop=npa geom=check

CID_81426659_JID_9371_Energie_anion

-1 2
