%chk=JID_6027.chk
%mem=8GB
%nprocshared=4
# opt freq B3LYP/6-31G(d) empiricaldispersion=gd3bj scf=xqc

CID_58148506_JID_6027_neutraal

0 1
C          0.91191       -0.04617        0.01040
C          0.48279       -1.40177       -0.59243
C          0.94676       -2.50792        0.37629
C         -1.05566       -1.41084       -0.68408
C          1.09501       -1.60265       -1.97653
C          1.86654       -0.74665       -2.74261
N          2.27991       -1.22274       -3.97078
C          1.81546       -2.44375       -4.16840
S          0.87980       -3.06617       -2.86312
C          2.09537       -3.25611       -5.37243
C          1.13975       -4.16215       -5.87481
C          1.40216       -4.93664       -7.00709
C          2.62746       -4.82592       -7.65289
C          3.58205       -3.92638       -7.17967
C          3.31480       -3.10108       -6.07641
N          4.37069       -2.30639       -5.57441
H          0.48158        0.09764        1.00851
H          0.57995        0.79399       -0.61096
H          2.00171        0.02157        0.11035
H          0.56718       -2.33029        1.38931
H          0.59127       -3.49815        0.07027
H          2.04082       -2.55244        0.43278
H         -1.41605       -0.64550       -1.38166
H         -1.43920       -2.37730       -1.02992
H         -1.51087       -1.21271        0.29324
H          2.16946        0.25251       -2.45326
H          0.17172       -4.27464       -5.39215
H          0.65337       -5.63367       -7.37462
H          2.84709       -5.44484       -8.51876
H          4.54728       -3.87218       -7.67693
H          4.00754       -1.55986       -4.97167
H          4.97897       -1.94070       -6.29848

--Link1--
%chk=JID_6027.chk
%mem=8GB
%nprocshared=4
# B3LYP/6-311++G(d,p) empiricaldispersion=gd3bj scf=xqc pop=npa geom=check

CID_58148506_JID_6027_Energie_neutraal

0 1

--Link1--
%chk=JID_6027.chk
%mem=8GB
%nprocshared=4
# B3LYP/6-311++G(d,p) empiricaldispersion=gd3bj scf=xqc pop=npa geom=check

CID_58148506_JID_6027_Energie_kation

1 2

--Link1--
%chk=JID_6027.chk
%mem=8GB
%nprocshared=4
# B3LYP/6-311++G(d,p) empiricaldispersion=gd3bj scf=xqc pop=npa geom=check

CID_58148506_JID_6027_Energie_anion

-1 2
