%chk=JID_2821.chk
%mem=8GB
%nprocshared=4
# opt freq B3LYP/6-31G(d) empiricaldispersion=gd3bj scf=xqc

CID_116127245_JID_2821_neutraal

0 1
C          1.08378       -0.00863        0.05391
C          0.73350        0.56651        1.43037
C          1.13837        2.05027        1.56491
C          0.64230        3.04550        0.51022
S         -1.04222        3.68073        0.79319
C         -1.90604        2.84997       -0.55989
N         -0.69063        0.35993        1.71342
C         -0.93785       -0.53864        2.85384
C         -0.61099        0.05004        4.25031
N         -1.73148        0.75471        4.90718
C         -1.34764        1.14496        6.26558
C         -2.13822        1.94215        4.15017
H          0.47147        0.42295       -0.74452
H          0.92627       -1.09318        0.03909
H          2.13601        0.17635       -0.18707
H          1.34614        0.01432        2.15586
H          0.88864        2.41472        2.56982
H          2.23685        2.07396        1.52053
H          1.28972        3.92877        0.56322
H          0.74968        2.65915       -0.50696
H         -1.50855        3.18265       -1.52238
H         -1.81270        1.76544       -0.48212
H         -2.96759        3.10818       -0.51811
H         -1.16039       -0.03540        0.90054
H         -1.99282       -0.83974        2.83317
H         -0.36792       -1.46576        2.70960
H         -0.34708       -0.80760        4.88390
H          0.28407        0.68282        4.21110
H         -0.49708        1.83639        6.27367
H         -2.18745        1.62495        6.78055
H         -1.08182        0.26354        6.85980
H         -1.30543        2.63584        3.99157
H         -2.56599        1.66722        3.18170
H         -2.93153        2.48095        4.68154

--Link1--
%chk=JID_2821.chk
%mem=8GB
%nprocshared=4
# B3LYP/6-311++G(d,p) empiricaldispersion=gd3bj scf=xqc pop=npa geom=check

CID_116127245_JID_2821_Energie_neutraal

0 1

--Link1--
%chk=JID_2821.chk
%mem=8GB
%nprocshared=4
# B3LYP/6-311++G(d,p) empiricaldispersion=gd3bj scf=xqc pop=npa geom=check

CID_116127245_JID_2821_Energie_kation

1 2

--Link1--
%chk=JID_2821.chk
%mem=8GB
%nprocshared=4
# B3LYP/6-311++G(d,p) empiricaldispersion=gd3bj scf=xqc pop=npa geom=check

CID_116127245_JID_2821_Energie_anion

-1 2
