%chk=JID_4003.chk
%mem=8GB
%nprocshared=4
# opt freq B3LYP/6-31G(d) empiricaldispersion=gd3bj scf=xqc

CID_149863779_JID_4003_neutraal

0 1
C          0.93599       -0.04259       -0.06395
O          0.50428        0.40154        1.21819
C          0.99521       -0.36674        2.23742
N          0.06157       -0.78230        3.11819
C          0.48517       -1.50805        4.17777
C          1.80931       -1.84062        4.40163
C          2.75381       -1.37525        3.49306
C          2.34727       -0.62300        2.38869
C          4.18949       -1.64668        3.68704
O          5.02662       -1.27196        2.87399
O          2.13340       -2.54702        5.52402
N          2.33905       -3.88076        5.13946
N          2.56539       -4.61985        6.11695
N          2.77498       -5.29433        7.01159
H          0.25610        0.37898       -0.81061
H          0.89931       -1.13437       -0.15478
H          1.94235        0.32879       -0.28165
H         -0.29803       -1.82243        4.86174
H          3.07640       -0.23108        1.68835
H          4.48716       -2.19813        4.59330

--Link1--
%chk=JID_4003.chk
%mem=8GB
%nprocshared=4
# B3LYP/6-311++G(d,p) empiricaldispersion=gd3bj scf=xqc pop=npa geom=check

CID_149863779_JID_4003_Energie_neutraal

0 1

--Link1--
%chk=JID_4003.chk
%mem=8GB
%nprocshared=4
# B3LYP/6-311++G(d,p) empiricaldispersion=gd3bj scf=xqc pop=npa geom=check

CID_149863779_JID_4003_Energie_kation

1 2

--Link1--
%chk=JID_4003.chk
%mem=8GB
%nprocshared=4
# B3LYP/6-311++G(d,p) empiricaldispersion=gd3bj scf=xqc pop=npa geom=check

CID_149863779_JID_4003_Energie_anion

-1 2
