%chk=JID_5674.chk
%mem=8GB
%nprocshared=4
# opt freq B3LYP/6-31G(d) empiricaldispersion=gd3bj scf=xqc

CID_150347630_JID_5674_neutraal

0 1
C          0.92760       -0.02813        0.06298
O          0.31048       -1.30614        0.15693
C          1.14210       -2.24260        0.84548
C          0.41285       -3.58983        0.96167
C         -0.00234       -4.10153       -0.42515
O          1.12336       -4.25178       -1.28278
C          1.30860       -4.62130        1.67042
O          0.91314       -4.86559        3.02563
C          1.21077       -3.83286        3.96390
C          2.68979       -3.63841        4.19549
C          3.53628       -4.74269        4.37234
C          4.90173       -4.56180        4.59554
C          5.43369       -3.27560        4.65678
C          4.60020       -2.16939        4.50104
C          3.23390       -2.34892        4.27710
H          0.25703        0.63794       -0.48641
H          1.87424       -0.09839       -0.48134
H          1.09540        0.38944        1.06038
H          2.08694       -2.35351        0.29986
H          1.36958       -1.84287        1.83752
H         -0.51107       -3.44002        1.53489
H         -0.48928       -5.07897       -0.33927
H         -0.72191       -3.42923       -0.90544
H          1.26085       -3.38798       -1.71199
H          1.21656       -5.59586        1.17781
H          2.37082       -4.35820        1.61788
H          0.71581       -2.90442        3.66405
H          0.75890       -4.12668        4.91849
H          3.12956       -5.75138        4.32570
H          5.54900       -5.42584        4.72173
H          6.49730       -3.13564        4.83078
H          5.01499       -1.16642        4.55775
H          2.59777       -1.47368        4.16682

--Link1--
%chk=JID_5674.chk
%mem=8GB
%nprocshared=4
# B3LYP/6-311++G(d,p) empiricaldispersion=gd3bj scf=xqc pop=npa geom=check

CID_150347630_JID_5674_Energie_neutraal

0 1

--Link1--
%chk=JID_5674.chk
%mem=8GB
%nprocshared=4
# B3LYP/6-311++G(d,p) empiricaldispersion=gd3bj scf=xqc pop=npa geom=check

CID_150347630_JID_5674_Energie_kation

1 2

--Link1--
%chk=JID_5674.chk
%mem=8GB
%nprocshared=4
# B3LYP/6-311++G(d,p) empiricaldispersion=gd3bj scf=xqc pop=npa geom=check

CID_150347630_JID_5674_Energie_anion

-1 2
