%chk=JID_5018.chk
%mem=8GB
%nprocshared=4
# opt freq B3LYP/6-31G(d) empiricaldispersion=gd3bj scf=xqc

CID_61177710_JID_5018_neutraal

0 1
C          2.60700        0.96000       -0.00600
C          1.28896        0.24053       -0.08881
C          0.10876        0.96517        0.06351
C         -1.09817        0.29715       -0.03480
N         -1.17810       -1.03216       -0.27028
C         -0.05217       -1.78971       -0.40788
C          1.20345       -1.15391       -0.32042
C          2.49096       -1.86556       -0.54488
N          3.27312       -2.27966        0.41616
O          2.73115       -2.02469        1.68270
N          2.91057       -2.04338       -1.83913
N         -0.26433       -3.14989       -0.69346
C         -1.67136       -3.55508       -0.66207
C          0.65830       -4.12896       -0.12642
C         -2.38932        1.04682        0.09877
H          3.17784        0.82669       -0.93033
H          2.46551        2.03756        0.13249
H          3.19213        0.59803        0.84453
H          0.12713        2.03492        0.24701
H          3.39865       -2.41287        2.27665
H          2.51816       -1.43629       -2.54742
H          3.90072       -2.23546       -1.92947
H         -1.77681       -4.59397       -0.99559
H         -2.08163       -3.48915        0.35294
H         -2.28499       -2.95711       -1.34594
H          1.57193       -4.20360       -0.72077
H          0.89330       -3.91388        0.92065
H          0.22295       -5.13546       -0.15221
H         -2.43633        1.55254        1.06815
H         -2.47776        1.79022       -0.69971
H         -3.24437        0.36683        0.02759

--Link1--
%chk=JID_5018.chk
%mem=8GB
%nprocshared=4
# B3LYP/6-311++G(d,p) empiricaldispersion=gd3bj scf=xqc pop=npa geom=check

CID_61177710_JID_5018_Energie_neutraal

0 1

--Link1--
%chk=JID_5018.chk
%mem=8GB
%nprocshared=4
# B3LYP/6-311++G(d,p) empiricaldispersion=gd3bj scf=xqc pop=npa geom=check

CID_61177710_JID_5018_Energie_kation

1 2

--Link1--
%chk=JID_5018.chk
%mem=8GB
%nprocshared=4
# B3LYP/6-311++G(d,p) empiricaldispersion=gd3bj scf=xqc pop=npa geom=check

CID_61177710_JID_5018_Energie_anion

-1 2
