%chk=JID_8273.chk
%mem=8GB
%nprocshared=4
# opt freq B3LYP/6-31G(d) empiricaldispersion=gd3bj scf=xqc

CID_64385832_JID_8273_neutraal

0 1
C          0.97459       -0.07777       -0.05750
C          0.33485       -0.84436       -1.22050
C          0.97365       -2.22512       -1.39851
N         -1.14717       -0.86852       -1.12272
C         -1.84419       -0.05550       -2.11907
C         -1.84713       -0.72285       -3.46914
C         -1.87956       -2.06684       -3.79458
C         -1.91561       -2.29121       -5.20049
C         -1.91861       -1.11194       -5.90897
S         -1.87291        0.25327       -4.88257
C         -1.74867       -1.53314       -0.05080
O         -1.05024       -2.22824        0.70125
C         -3.29961       -1.48212        0.21334
C         -3.59547       -2.15140        1.57188
C         -4.88997       -1.52486        2.04610
C         -4.90205       -0.15333        1.40231
N         -3.77131       -0.09569        0.46995
C         -4.09268       -2.18651       -0.89578
H          0.84671       -0.59258        0.89930
H          0.52961        0.91850        0.03873
H          2.04967        0.04740       -0.22514
H          0.58609       -0.28288       -2.13035
H          0.91814       -2.83779       -0.49492
H          0.49560       -2.78118       -2.20975
H          2.03532       -2.11950       -1.64846
H         -2.87520        0.14133       -1.84953
H         -1.34548        0.92113       -2.15530
H         -1.87499       -2.85941       -3.05548
H         -1.94146       -3.26848       -5.66703
H         -1.94690       -0.98513       -6.98262
H         -3.67441       -3.24199        1.50188
H         -2.81638       -1.92738        2.31259
H         -4.93606       -1.47221        3.13835
H         -5.74707       -2.11512        1.70234
H         -4.80035        0.63851        2.15099
H         -5.84803        0.00851        0.87331
H         -4.08500        0.35906       -0.38204
H         -4.12174       -1.61344       -1.82463
H         -3.64742       -3.16060       -1.12754
H         -5.13588       -2.36123       -0.61068

--Link1--
%chk=JID_8273.chk
%mem=8GB
%nprocshared=4
# B3LYP/6-311++G(d,p) empiricaldispersion=gd3bj scf=xqc pop=npa geom=check

CID_64385832_JID_8273_Energie_neutraal

0 1

--Link1--
%chk=JID_8273.chk
%mem=8GB
%nprocshared=4
# B3LYP/6-311++G(d,p) empiricaldispersion=gd3bj scf=xqc pop=npa geom=check

CID_64385832_JID_8273_Energie_kation

1 2

--Link1--
%chk=JID_8273.chk
%mem=8GB
%nprocshared=4
# B3LYP/6-311++G(d,p) empiricaldispersion=gd3bj scf=xqc pop=npa geom=check

CID_64385832_JID_8273_Energie_anion

-1 2
