%chk=JID_6257.chk
%mem=8GB
%nprocshared=4
# opt freq B3LYP/6-31G(d) empiricaldispersion=gd3bj scf=xqc

CID_128261722_JID_6257_neutraal

0 1
C          1.06280       -0.05645        0.05356
C          0.95409        0.72786       -1.26307
C          0.63748        2.19096       -0.93762
N          0.26031        2.98785       -2.12879
C          1.38976        3.33249       -3.02333
C          1.65795        2.37667       -4.18098
S          2.06110        0.62850       -3.84748
C          2.26929        0.58410       -2.04188
S         -1.31698        2.80492       -2.71067
O         -1.28860        1.82554       -3.77375
O         -2.19103        2.61697       -1.57229
C         -1.69087        4.38737       -3.44622
C         -2.02913        5.48592       -2.44526
C         -0.85359        5.96327       -1.59669
O         -2.66806        6.60086       -3.10001
C         -1.88531        7.32008       -4.04238
H          1.24585       -1.11897       -0.13950
H          0.13397        0.01804        0.62927
H          1.88057        0.32283        0.67603
H          0.12632        0.28059       -1.82730
H         -0.17019        2.25266       -0.19859
H          1.49357        2.67129       -0.44570
H          2.30379        3.45408       -2.42880
H          1.20520        4.33255       -3.43126
H          2.51437        2.77164       -4.74046
H          0.82640        2.39087       -4.89133
H          3.02331        1.31444       -1.72979
H          2.70540       -0.40143       -1.84185
H         -0.87666        4.65878       -4.12228
H         -2.56344        4.21175       -4.08822
H         -2.79245        5.11055       -1.75439
H          0.01637        6.20620       -2.21494
H         -1.12147        6.87237       -1.04714
H         -0.55317        5.20681       -0.86713
H         -1.00954        7.77160       -3.56977
H         -1.58205        6.68111       -4.87546
H         -2.50308        8.12725       -4.44643

--Link1--
%chk=JID_6257.chk
%mem=8GB
%nprocshared=4
# B3LYP/6-311++G(d,p) empiricaldispersion=gd3bj scf=xqc pop=npa geom=check

CID_128261722_JID_6257_Energie_neutraal

0 1

--Link1--
%chk=JID_6257.chk
%mem=8GB
%nprocshared=4
# B3LYP/6-311++G(d,p) empiricaldispersion=gd3bj scf=xqc pop=npa geom=check

CID_128261722_JID_6257_Energie_kation

1 2

--Link1--
%chk=JID_6257.chk
%mem=8GB
%nprocshared=4
# B3LYP/6-311++G(d,p) empiricaldispersion=gd3bj scf=xqc pop=npa geom=check

CID_128261722_JID_6257_Energie_anion

-1 2
