%chk=JID_7600.chk
%mem=8GB
%nprocshared=4
# opt freq B3LYP/6-31G(d) empiricaldispersion=gd3bj scf=xqc

CID_114991607_JID_7600_neutraal

0 1
C         -1.43100        0.32400       -0.23100
C         -1.23238       -1.45694       -0.12800
C          0.53088       -2.13866       -0.31430
C          2.14307       -0.71348       -0.37697
C          1.64250        1.13103       -0.38859
C         -0.11802        1.50896       -0.21621
C          2.35620        1.96571       -1.44424
O          3.53641        2.27757       -1.43366
O          1.57233        2.39929       -2.44751
O          3.31107       -0.74916       -1.26133
C          2.90387       -1.07335       -2.55707
C          1.68426       -1.80854       -2.18275
C          0.48225       -0.54830       -1.34524
C          0.58793       -0.54743        0.77937
C          1.69570       -1.90586        1.53319
C          2.67930       -2.88462        0.33472
O          2.29135       -3.03487       -1.20835
H         -2.11336        0.60168        0.58368
H         -1.98900        0.50703       -1.16077
H         -1.64243       -1.82857        0.82384
H         -1.84931       -1.92037       -0.91296
H          0.27841       -2.75897       -1.20948
H          0.51060       -3.00552        0.37374
H          2.74800       -0.61197        0.53827
H          2.09670        1.55495        0.52740
H         -0.37913        2.25973       -0.97205
H         -0.20667        2.02715        0.75035
H          2.18565        2.93116       -2.99842
H          2.71631       -0.18517       -3.16337
H          3.66798       -1.69724       -3.02689
H          1.18021       -2.29750       -3.02538
H         -0.44337       -0.87486       -1.86110
H          0.60195        0.35929       -1.94664
H          1.01257        0.30845        1.32925
H         -0.30945       -0.60043        1.41935
H          2.38117       -1.44446        2.26015
H          1.05422       -2.57661        2.12656
H          3.72417       -2.55143        0.36819
H          2.66446       -3.91344        0.71445

--Link1--
%chk=JID_7600.chk
%mem=8GB
%nprocshared=4
# B3LYP/6-311++G(d,p) empiricaldispersion=gd3bj scf=xqc pop=npa geom=check

CID_114991607_JID_7600_Energie_neutraal

0 1

--Link1--
%chk=JID_7600.chk
%mem=8GB
%nprocshared=4
# B3LYP/6-311++G(d,p) empiricaldispersion=gd3bj scf=xqc pop=npa geom=check

CID_114991607_JID_7600_Energie_kation

1 2

--Link1--
%chk=JID_7600.chk
%mem=8GB
%nprocshared=4
# B3LYP/6-311++G(d,p) empiricaldispersion=gd3bj scf=xqc pop=npa geom=check

CID_114991607_JID_7600_Energie_anion

-1 2
