%chk=JID_7556.chk
%mem=8GB
%nprocshared=4
# opt freq B3LYP/6-31G(d) empiricaldispersion=gd3bj scf=xqc

CID_61708097_JID_7556_neutraal

0 1
C          1.07180       -0.03696       -0.05898
C          0.02848        0.77771       -0.81532
C          0.64218        1.67245       -1.88595
O         -1.07445        0.03138       -1.32956
C         -0.85924       -1.27009       -1.87173
C         -0.28263       -1.28069       -3.28583
O          1.15398       -1.23254       -3.23137
C          1.78427       -1.71819       -4.33102
O          1.22430       -2.17782       -5.31715
C          3.27953       -1.54538       -4.24109
C          3.93403       -1.92852       -2.91394
C          3.83449       -3.39639       -2.44047
C          2.65595       -3.61906       -1.48024
C          2.62624       -5.06674       -0.99751
C          2.64052       -6.03669       -2.17505
N          3.79586       -5.80273       -3.04210
C          3.80697       -4.43685       -3.57174
H          1.64278       -0.68710       -0.72529
H          0.59512       -0.67374        0.69349
H          1.78384        0.62199        0.44861
H         -0.42699        1.45586       -0.08281
H          1.22037        1.10777       -2.61876
H         -0.14034        2.20524       -2.43649
H          1.31461        2.40986       -1.43545
H         -0.27820       -1.89255       -1.18502
H         -1.85891       -1.71615       -1.92512
H         -0.60212       -2.20881       -3.77383
H         -0.63755       -0.41832       -3.85939
H          3.73567       -2.12027       -5.05523
H          3.48995       -0.48995       -4.45364
H          5.00360       -1.70156       -3.02579
H          3.58143       -1.25999       -2.11928
H          4.74550       -3.57977       -1.85008
H          2.73766       -2.95097       -0.61524
H          1.70748       -3.39578       -1.97741
H          3.49365       -5.25561       -0.35205
H          1.73193       -5.23433       -0.38686
H          2.68471       -7.06273       -1.79421
H          1.71105       -5.94746       -2.75073
H          3.76610       -6.46185       -3.82037
H          2.93182       -4.29880       -4.21651
H          4.69608       -4.31610       -4.20045

--Link1--
%chk=JID_7556.chk
%mem=8GB
%nprocshared=4
# B3LYP/6-311++G(d,p) empiricaldispersion=gd3bj scf=xqc pop=npa geom=check

CID_61708097_JID_7556_Energie_neutraal

0 1

--Link1--
%chk=JID_7556.chk
%mem=8GB
%nprocshared=4
# B3LYP/6-311++G(d,p) empiricaldispersion=gd3bj scf=xqc pop=npa geom=check

CID_61708097_JID_7556_Energie_kation

1 2

--Link1--
%chk=JID_7556.chk
%mem=8GB
%nprocshared=4
# B3LYP/6-311++G(d,p) empiricaldispersion=gd3bj scf=xqc pop=npa geom=check

CID_61708097_JID_7556_Energie_anion

-1 2
