%chk=JID_7942.chk
%mem=8GB
%nprocshared=4
# opt freq B3LYP/6-31G(d) empiricaldispersion=gd3bj scf=xqc

CID_81893279_JID_7942_neutraal

0 1
C          1.04654        0.06830       -0.05630
C          0.99685        1.57874        0.08474
O          1.90114        2.25411       -0.78225
C          3.29981        2.04002       -0.56012
C          3.88948        2.84714        0.63573
C          3.66733        2.16215        1.97334
C          4.10430        0.85067        2.23686
C          3.86192        0.26213        3.47076
C          3.19782        1.03864        4.41581
N          2.77131        2.30850        4.21735
C          3.01901        2.83972        3.00321
O          4.19610       -0.98692        3.88295
C          4.79037       -1.98122        3.04396
C          3.92025       -2.40430        1.86408
C          6.24080       -1.67957        2.68137
N          5.32737        3.09431        0.39491
C          5.86470        4.16328        1.22637
H          0.98109       -0.22515       -1.10882
H          0.22107       -0.39476        0.49254
H          1.97921       -0.34156        0.33766
H         -0.00612        1.91716       -0.19781
H          1.14158        1.88812        1.12088
H          3.53471        0.97193       -0.52063
H          3.77150        2.40942       -1.47981
H          3.36376        3.81192        0.63684
H          4.62814        0.31828        1.45520
H          2.98180        0.63652        5.40248
H          2.66317        3.85919        2.87513
H          4.83396       -2.86325        3.69668
H          3.93618       -1.67848        1.04847
H          4.27093       -3.35629        1.45167
H          2.87710       -2.52265        2.17539
H          6.80442       -1.38945        3.57444
H          6.71864       -2.55989        2.23910
H          6.33672       -0.86042        1.96574
H          5.86060        2.24092        0.54864
H          5.84849        3.90723        2.29002
H          6.90709        4.34627        0.94718
H          5.31788        5.09928        1.07315

--Link1--
%chk=JID_7942.chk
%mem=8GB
%nprocshared=4
# B3LYP/6-311++G(d,p) empiricaldispersion=gd3bj scf=xqc pop=npa geom=check

CID_81893279_JID_7942_Energie_neutraal

0 1

--Link1--
%chk=JID_7942.chk
%mem=8GB
%nprocshared=4
# B3LYP/6-311++G(d,p) empiricaldispersion=gd3bj scf=xqc pop=npa geom=check

CID_81893279_JID_7942_Energie_kation

1 2

--Link1--
%chk=JID_7942.chk
%mem=8GB
%nprocshared=4
# B3LYP/6-311++G(d,p) empiricaldispersion=gd3bj scf=xqc pop=npa geom=check

CID_81893279_JID_7942_Energie_anion

-1 2
