%chk=JID_235.chk
%mem=8GB
%nprocshared=4
# opt freq B3LYP/6-31G(d) empiricaldispersion=gd3bj scf=xqc

CID_147220979_JID_235_neutraal

0 1
C          1.09804       -0.01365        0.01422
C          0.51554       -0.25211       -1.36808
C          1.43785       -0.97638       -2.34997
C          2.94004       -0.58671       -2.39360
C          3.21118       -1.96886       -3.00836
C          1.89407       -2.48936       -2.35848
N          2.08234       -2.99350       -0.98171
C          0.81327       -3.56444       -0.50620
C          3.15538       -3.99835       -0.85770
C          3.07365       -5.21689       -1.77467
H          1.39364       -0.93786        0.51330
H          0.35491        0.48087        0.64877
H          1.97332        0.64146       -0.03124
H         -0.43431       -0.79119       -1.28703
H          0.26509        0.73056       -1.78876
H          0.97767       -0.77226       -3.33523
H          3.18837        0.26870       -3.02764
H          3.42455       -0.45304       -1.42070
H          4.17089       -2.41961       -2.75198
H          3.15542       -1.95761       -4.10600
H          1.30897       -3.14370       -3.01517
H          0.46408       -4.39702       -1.12655
H          0.91550       -3.92128        0.52498
H          0.01607       -2.81768       -0.48988
H          4.12951       -3.51531       -0.98832
H          3.18095       -4.35349        0.18145
H          3.09649       -4.93472       -2.83133
H          3.93208       -5.87216       -1.59183
H          2.17034       -5.80570       -1.59153

--Link1--
%chk=JID_235.chk
%mem=8GB
%nprocshared=4
# B3LYP/6-311++G(d,p) empiricaldispersion=gd3bj scf=xqc pop=npa geom=check

CID_147220979_JID_235_Energie_neutraal

0 1

--Link1--
%chk=JID_235.chk
%mem=8GB
%nprocshared=4
# B3LYP/6-311++G(d,p) empiricaldispersion=gd3bj scf=xqc pop=npa geom=check

CID_147220979_JID_235_Energie_kation

1 2

--Link1--
%chk=JID_235.chk
%mem=8GB
%nprocshared=4
# B3LYP/6-311++G(d,p) empiricaldispersion=gd3bj scf=xqc pop=npa geom=check

CID_147220979_JID_235_Energie_anion

-1 2
