%chk=JID_8839.chk
%mem=8GB
%nprocshared=4
# opt freq B3LYP/6-31G(d) empiricaldispersion=gd3bj scf=xqc

CID_65795222_JID_8839_neutraal

0 1
C          0.94539       -0.04287       -0.07197
C         -0.00688       -1.09762       -0.63022
C          0.58120       -1.86920       -1.82410
N          1.63667       -2.86172       -1.42276
C          1.01246       -3.96313       -0.62405
C          0.59561       -3.48879        0.77211
S         -0.66749       -2.16149        0.71214
C          1.78583       -3.10432        1.64682
S          2.57618       -3.39216       -2.74497
O          1.96635       -4.59092       -3.27136
O          2.82006       -2.24469       -3.59062
N          4.02446       -3.79407       -1.99944
C          4.15596       -5.03894       -1.23729
C          5.28950       -3.24508       -2.54354
C          5.88806       -4.07278       -3.68509
C          5.16948       -4.01148       -5.03608
N          5.07417       -2.64126       -5.54092
C          4.55371       -2.62814       -6.90409
H          0.49143        0.50952        0.75811
H          1.19099        0.68962       -0.84954
H          1.89030       -0.46855        0.27190
H         -0.87963       -0.55012       -1.00740
H         -0.22024       -2.39276       -2.36142
H          0.99840       -1.12909       -2.51529
H          1.70317       -4.79823       -0.50167
H          0.14169       -4.36224       -1.16079
H          0.09785       -4.33093        1.26805
H          1.46161       -2.75937        2.63468
H          2.42980       -3.97691        1.80554
H          2.41028       -2.32896        1.19820
H          3.52736       -5.83404       -1.64628
H          5.18402       -5.41424       -1.24328
H          3.89116       -4.85968       -0.19217
H          5.17192       -2.19293       -2.82062
H          6.01473       -3.22699       -1.71839
H          6.92104       -3.73148       -3.83632
H          5.96218       -5.12583       -3.38863
H          5.74587       -4.62291       -5.74208
H          4.17684       -4.46684       -4.96176
H          4.39954       -2.13099       -4.95463
H          3.55532       -3.07453       -6.95684
H          4.47957       -1.59376       -7.25383
H          5.22222       -3.15984       -7.58887

--Link1--
%chk=JID_8839.chk
%mem=8GB
%nprocshared=4
# B3LYP/6-311++G(d,p) empiricaldispersion=gd3bj scf=xqc pop=npa geom=check

CID_65795222_JID_8839_Energie_neutraal

0 1

--Link1--
%chk=JID_8839.chk
%mem=8GB
%nprocshared=4
# B3LYP/6-311++G(d,p) empiricaldispersion=gd3bj scf=xqc pop=npa geom=check

CID_65795222_JID_8839_Energie_kation

1 2

--Link1--
%chk=JID_8839.chk
%mem=8GB
%nprocshared=4
# B3LYP/6-311++G(d,p) empiricaldispersion=gd3bj scf=xqc pop=npa geom=check

CID_65795222_JID_8839_Energie_anion

-1 2
