%chk=JID_3039.chk
%mem=8GB
%nprocshared=4
# opt freq B3LYP/6-31G(d) empiricaldispersion=gd3bj scf=xqc

CID_148208227_JID_3039_neutraal

0 1
C          0.92766        0.06896        0.00350
C          0.58390        1.53551       -0.22875
C          1.38293        2.14519       -1.39557
C          0.83802        1.65101       -2.74387
C          1.37236        3.69049       -1.38851
C          1.91204        4.40089       -0.11632
C          3.22394        3.77514        0.37723
C          2.10615        5.91496       -0.38838
C          2.57936        6.72983        0.88311
C          2.36388        8.28183        0.76017
C          0.90084        8.69820        0.38845
C          0.42264        7.66637       -0.52435
C          0.87376        6.59642       -0.80313
H          0.66455       -0.55082       -0.85809
H          0.37400       -0.31286        0.86745
H          1.99605       -0.05535        0.20705
H         -0.49272        1.63533       -0.41245
H          0.78985        2.06699        0.70511
H          2.42545        1.81062       -1.33068
H         -0.21428        1.92803       -2.87168
H          1.40336        2.08691       -3.57468
H          0.91536        0.56352       -2.83344
H          1.96200        4.03281       -2.25015
H          0.34361        4.03026       -1.56872
H          1.16367        4.28659        0.67909
H          4.00504        3.84442       -0.38687
H          3.58749        4.26822        1.28351
H          3.09731        2.72105        0.63998
H          2.86620        6.04914       -1.17003
H          2.02223        6.38312        1.76418
H          3.64088        6.53636        1.07387
H          2.65844        8.77418        1.69381
H          3.04157        8.65072       -0.02154
H          0.28639        8.72602        1.29441
H          0.89561        9.69457       -0.06343

--Link1--
%chk=JID_3039.chk
%mem=8GB
%nprocshared=4
# B3LYP/6-311++G(d,p) empiricaldispersion=gd3bj scf=xqc pop=npa geom=check

CID_148208227_JID_3039_Energie_neutraal

0 1

--Link1--
%chk=JID_3039.chk
%mem=8GB
%nprocshared=4
# B3LYP/6-311++G(d,p) empiricaldispersion=gd3bj scf=xqc pop=npa geom=check

CID_148208227_JID_3039_Energie_kation

1 2

--Link1--
%chk=JID_3039.chk
%mem=8GB
%nprocshared=4
# B3LYP/6-311++G(d,p) empiricaldispersion=gd3bj scf=xqc pop=npa geom=check

CID_148208227_JID_3039_Energie_anion

-1 2
