%chk=JID_8867.chk
%mem=8GB
%nprocshared=4
# opt freq B3LYP/6-31G(d) empiricaldispersion=gd3bj scf=xqc

CID_81671908_JID_8867_neutraal

0 1
C          1.07235        0.06861       -0.00755
C          0.28700       -1.14926       -0.52399
C          0.14797       -2.19320        0.59831
C         -1.13255       -0.67617       -0.90137
N          0.83120       -1.74237       -1.75782
C          2.29187       -1.79819       -1.91592
C          2.92869       -2.86571       -1.08360
N          3.66373       -2.60532        0.00759
N          4.03205       -3.83851        0.38868
C          3.48565       -4.78471       -0.42236
N          2.78744       -4.20412       -1.36983
C          4.76353       -4.04912        1.61173
C          6.29396       -3.84896        1.58080
C          7.02398       -4.74643        0.56882
C          7.16836       -4.14465       -0.82568
C          7.77050       -2.74774       -0.77366
C          6.93886       -1.82056        0.09994
C          6.74008       -2.37771        1.50638
H          0.54180        0.55157        0.82175
H          1.20095        0.82262       -0.79269
H          2.06267       -0.20725        0.36843
H         -0.41344       -1.78159        1.44569
H         -0.39132       -3.08360        0.25459
H          1.11602       -2.51659        0.98796
H         -1.10437        0.07649       -1.69861
H         -1.75609       -1.50876       -1.24928
H         -1.64144       -0.22412       -0.04174
H          0.47027       -2.69014       -1.87911
H          2.49273       -2.04049       -2.96691
H          2.76410       -0.82441       -1.75208
H          3.61946       -5.84776       -0.28035
H          4.31408       -3.39598        2.37053
H          4.54937       -5.07708        1.93258
H          6.61467       -4.19717        2.57469
H          8.03465       -4.93678        0.95504
H          6.53769       -5.72677        0.50259
H          6.19807       -4.10736       -1.33026
H          7.80887       -4.79349       -1.43435
H          7.83702       -2.33637       -1.78722
H          8.79410       -2.80125       -0.38317
H          5.97466       -1.63767       -0.38040
H          7.43296       -0.84391        0.16656
H          6.04703       -1.73632        2.06367
H          7.70437       -2.29804        2.02714

--Link1--
%chk=JID_8867.chk
%mem=8GB
%nprocshared=4
# B3LYP/6-311++G(d,p) empiricaldispersion=gd3bj scf=xqc pop=npa geom=check

CID_81671908_JID_8867_Energie_neutraal

0 1

--Link1--
%chk=JID_8867.chk
%mem=8GB
%nprocshared=4
# B3LYP/6-311++G(d,p) empiricaldispersion=gd3bj scf=xqc pop=npa geom=check

CID_81671908_JID_8867_Energie_kation

1 2

--Link1--
%chk=JID_8867.chk
%mem=8GB
%nprocshared=4
# B3LYP/6-311++G(d,p) empiricaldispersion=gd3bj scf=xqc pop=npa geom=check

CID_81671908_JID_8867_Energie_anion

-1 2
