%chk=JID_8087.chk
%mem=8GB
%nprocshared=4
# opt freq B3LYP/6-31G(d) empiricaldispersion=gd3bj scf=xqc

CID_66879063_JID_8087_neutraal

0 1
C          1.34400       -0.22500        0.03600
C          0.93840        1.08819       -0.19250
C         -0.41853        1.38785       -0.32009
C         -1.38658        0.37598       -0.21674
C         -0.96430       -0.94125        0.01885
C          0.39395       -1.23907        0.14179
C         -2.85618        0.69649       -0.35537
C         -3.29093        1.26820        0.95207
N         -3.79848        0.48497        1.90890
S         -4.14843        1.48556        3.19555
C         -3.67049        2.92511        2.36407
N         -3.23208        2.64665        1.15776
N         -3.70251        4.19198        2.83519
C         -4.48489        4.62442        3.97182
C         -3.58142        4.96592        5.15647
C         -2.57321        6.09477        4.90167
C         -3.16625        7.42931        4.44544
N         -4.09856        7.98243        5.41867
H          2.40064       -0.45762        0.13715
H          1.67792        1.88097       -0.26640
H         -0.72203        2.41963       -0.48808
H         -1.69346       -1.74318        0.11470
H          0.71002       -2.26257        0.32538
H         -3.01109        1.41595       -1.16755
H         -3.43350       -0.20040       -0.60812
H         -3.43397        4.90963        2.17076
H         -5.07753        5.49828        3.68021
H         -5.21599        3.87022        4.28403
H         -4.21190        5.22899        6.01424
H         -3.02136        4.06989        5.45323
H         -2.00064        6.25605        5.82447
H         -1.84487        5.76537        4.15033
H         -2.34736        8.14406        4.30613
H         -3.66200        7.32571        3.47489
H         -4.40421        8.90478        5.10875
H         -4.93900        7.41130        5.47520

--Link1--
%chk=JID_8087.chk
%mem=8GB
%nprocshared=4
# B3LYP/6-311++G(d,p) empiricaldispersion=gd3bj scf=xqc pop=npa geom=check

CID_66879063_JID_8087_Energie_neutraal

0 1

--Link1--
%chk=JID_8087.chk
%mem=8GB
%nprocshared=4
# B3LYP/6-311++G(d,p) empiricaldispersion=gd3bj scf=xqc pop=npa geom=check

CID_66879063_JID_8087_Energie_kation

1 2

--Link1--
%chk=JID_8087.chk
%mem=8GB
%nprocshared=4
# B3LYP/6-311++G(d,p) empiricaldispersion=gd3bj scf=xqc pop=npa geom=check

CID_66879063_JID_8087_Energie_anion

-1 2
