%chk=JID_6950.chk
%mem=8GB
%nprocshared=4
# opt freq B3LYP/6-31G(d) empiricaldispersion=gd3bj scf=xqc

CID_79099817_JID_6950_neutraal

0 1
C          1.06186        0.05927       -0.05158
C          1.45229       -0.91841        1.04020
C          1.60075       -0.22264        2.38021
O          0.65517       -0.20583        3.16960
C          2.86581        0.43862        2.71069
C          3.97846        0.58611        1.89848
N          4.93668        1.28742        2.59014
C          4.48360        1.54603        3.85516
C          3.19950        1.05828        3.95075
C          6.24715        1.64206        2.06740
C          6.61750        3.09325        2.28930
O          7.41662        3.42461        3.16793
N          6.11582        4.06567        1.46985
C          4.97935        3.99125        0.55791
C          3.71007        4.47273        1.25672
C          5.25832        4.83443       -0.68264
H          0.13425        0.58183        0.20484
H          0.90742       -0.46861       -0.99761
H          1.83544        0.81752       -0.20751
H          0.67526       -1.68509        1.14385
H          2.37622       -1.44763        0.78591
H          4.16363        0.25952        0.88325
H          5.09694        2.06607        4.58188
H          2.56109        1.12317        4.82411
H          6.97494        1.00216        2.57900
H          6.28759        1.40187        1.00034
H          6.42293        4.99130        1.75027
H          4.83628        2.95432        0.24352
H          3.80423        5.51862        1.57035
H          2.84412        4.39333        0.59147
H          3.50146        3.88359        2.15423
H          6.15906        4.48031       -1.19578
H          4.42279        4.78064       -1.38827
H          5.41929        5.88665       -0.42260

--Link1--
%chk=JID_6950.chk
%mem=8GB
%nprocshared=4
# B3LYP/6-311++G(d,p) empiricaldispersion=gd3bj scf=xqc pop=npa geom=check

CID_79099817_JID_6950_Energie_neutraal

0 1

--Link1--
%chk=JID_6950.chk
%mem=8GB
%nprocshared=4
# B3LYP/6-311++G(d,p) empiricaldispersion=gd3bj scf=xqc pop=npa geom=check

CID_79099817_JID_6950_Energie_kation

1 2

--Link1--
%chk=JID_6950.chk
%mem=8GB
%nprocshared=4
# B3LYP/6-311++G(d,p) empiricaldispersion=gd3bj scf=xqc pop=npa geom=check

CID_79099817_JID_6950_Energie_anion

-1 2
