%chk=JID_9807.chk
%mem=8GB
%nprocshared=4
# opt freq B3LYP/6-31G(d) empiricaldispersion=gd3bj scf=xqc

CID_112236326_JID_9807_neutraal

0 1
C          0.92405        0.04730        0.04466
C          0.34768       -1.05667       -0.82821
N          0.46137       -2.37085       -0.18066
C         -0.78725       -2.92234        0.37300
C         -1.61008       -3.78746       -0.62246
C         -0.93353       -5.11146       -0.98252
C         -2.98893       -4.07217       -0.01753
O         -1.83335       -3.06130       -1.83693
C          1.65246       -3.03515       -0.33590
O          2.51996       -2.66325       -1.12866
N          1.92661       -4.15893        0.36794
C          1.62804       -4.42369        1.76551
C          2.71377       -5.26932        2.43693
C          4.04746       -4.54062        2.65027
C          4.17060       -3.86298        4.01820
C          5.54808       -3.23579        4.23216
C          5.34786       -2.32143        5.43359
C          3.88000       -1.89826        5.39380
C          3.24155       -2.67376        4.24327
H          0.40461        0.09403        1.00748
H          0.81958        1.01781       -0.44986
H          1.98676       -0.12116        0.24703
H         -0.70353       -0.83731       -1.04378
H          0.87096       -1.07198       -1.79098
H         -0.59280       -3.49112        1.27905
H         -1.38950       -2.06277        0.69585
H         -0.71740       -5.71145       -0.09359
H         -1.57541       -5.70437       -1.64503
H         -0.00550       -4.95114       -1.53974
H         -3.52676       -3.13882        0.18511
H         -3.61409       -4.64028       -0.71608
H         -2.91008       -4.63763        0.91681
H         -0.95579       -2.92742       -2.24106
H          2.82487       -4.50771        0.05430
H          1.46457       -3.47935        2.28971
H          0.70374       -5.00806        1.78747
H          2.33811       -5.64585        3.39577
H          2.90051       -6.15063        1.80926
H          4.84844       -5.28863        2.58120
H          4.23347       -3.82011        1.84530
H          3.99827       -4.60799        4.80735
H          6.32434       -3.98555        4.41405
H          5.84765       -2.64322        3.35894
H          6.02466       -1.46189        5.40531
H          5.54911       -2.86862        6.36214
H          3.77422       -0.81870        5.24503
H          3.39385       -2.14681        6.34411
H          3.20023       -2.03766        3.35066
H          2.22053       -2.98127        4.48842

--Link1--
%chk=JID_9807.chk
%mem=8GB
%nprocshared=4
# B3LYP/6-311++G(d,p) empiricaldispersion=gd3bj scf=xqc pop=npa geom=check

CID_112236326_JID_9807_Energie_neutraal

0 1

--Link1--
%chk=JID_9807.chk
%mem=8GB
%nprocshared=4
# B3LYP/6-311++G(d,p) empiricaldispersion=gd3bj scf=xqc pop=npa geom=check

CID_112236326_JID_9807_Energie_kation

1 2

--Link1--
%chk=JID_9807.chk
%mem=8GB
%nprocshared=4
# B3LYP/6-311++G(d,p) empiricaldispersion=gd3bj scf=xqc pop=npa geom=check

CID_112236326_JID_9807_Energie_anion

-1 2
