%chk=JID_7941.chk
%mem=8GB
%nprocshared=4
# opt freq B3LYP/6-31G(d) empiricaldispersion=gd3bj scf=xqc

CID_116584639_JID_7941_neutraal

0 1
C          1.06360        0.07638        0.01100
C          1.40654       -0.89840       -1.10168
N          0.72658       -2.17184       -0.95522
C          1.28178       -3.28201       -0.37396
C          0.32427       -4.25837       -0.47108
N         -0.79107       -3.77559       -1.10060
C         -0.54494       -2.50276       -1.37746
C         -1.50389       -1.62998       -2.05135
O         -1.23519       -0.46395       -2.34651
C         -2.87601       -2.23386       -2.40734
C         -4.01341       -1.30161       -1.94889
C         -4.25469       -0.10153       -2.86326
C         -4.37293       -0.50521       -4.32615
C         -3.18292       -1.34190       -4.78349
C         -3.00338       -2.59400       -3.90801
C         -1.85393       -3.45938       -4.45854
N         -1.76841       -4.74771       -3.78298
H         -0.00856        0.29566        0.03607
H          1.60132        1.01879       -0.13128
H          1.34186       -0.33065        0.98900
H          1.17068       -0.48770       -2.08731
H          2.48440       -1.09956       -1.09711
H          2.27798       -3.28414        0.04647
H          0.38001       -5.28301       -0.12556
H         -3.00462       -3.15216       -1.82148
H         -4.94086       -1.88804       -1.90537
H         -3.82341       -0.94457       -0.92934
H         -3.44474        0.62723       -2.75066
H         -5.17214        0.41182       -2.55196
H         -4.45353        0.39230       -4.94990
H         -5.29772       -1.07691       -4.47276
H         -2.27275       -0.73074       -4.77095
H         -3.34394       -1.63924       -5.82703
H         -3.92752       -3.18277       -4.01366
H         -2.02450       -3.65105       -5.52426
H         -0.89451       -2.93610       -4.38335
H         -0.99837       -5.28699       -4.17666
H         -1.51346       -4.61270       -2.79570

--Link1--
%chk=JID_7941.chk
%mem=8GB
%nprocshared=4
# B3LYP/6-311++G(d,p) empiricaldispersion=gd3bj scf=xqc pop=npa geom=check

CID_116584639_JID_7941_Energie_neutraal

0 1

--Link1--
%chk=JID_7941.chk
%mem=8GB
%nprocshared=4
# B3LYP/6-311++G(d,p) empiricaldispersion=gd3bj scf=xqc pop=npa geom=check

CID_116584639_JID_7941_Energie_kation

1 2

--Link1--
%chk=JID_7941.chk
%mem=8GB
%nprocshared=4
# B3LYP/6-311++G(d,p) empiricaldispersion=gd3bj scf=xqc pop=npa geom=check

CID_116584639_JID_7941_Energie_anion

-1 2
