%chk=JID_7482.chk
%mem=8GB
%nprocshared=4
# opt freq B3LYP/6-31G(d) empiricaldispersion=gd3bj scf=xqc

CID_116606661_JID_7482_neutraal

0 1
C          1.07094        0.07041        0.00324
C         -0.23292        0.07041        0.00324
C         -1.75292        0.07041        0.00324
C         -2.32551       -0.54185        1.28913
C         -2.11247        0.41968        2.47458
O         -2.95997        1.26730        2.76804
C         -0.84913        0.36585        3.26879
C         -0.07451       -0.79364        3.37975
C          1.09545       -0.77684        4.14152
C          1.51176        0.39739        4.77613
C          0.73093        1.54598        4.69262
C         -0.44823        1.52997        3.94367
O          2.66766        0.48799        5.50700
C          3.53684       -0.62133        5.25112
C          2.75949       -1.92692        5.27304
O          1.79206       -1.95688        4.21646
N         -3.78909       -0.75205        1.12765
H          2.13689        0.07229        0.00407
H         -2.10027        1.10258       -0.12934
H         -2.08519       -0.50375       -0.87059
H         -1.88894       -1.52265        1.48670
H         -0.35918       -1.72681        2.90640
H          1.04215        2.45534        5.19974
H         -1.04924        2.43591        3.88045
H          4.30692       -0.62579        6.02881
H          4.02866       -0.46294        4.28329
H          3.43698       -2.77383        5.12604
H          2.23737       -2.06791        6.22756
H         -4.15433       -1.14053        1.99931
H         -4.22236        0.17756        1.08569

--Link1--
%chk=JID_7482.chk
%mem=8GB
%nprocshared=4
# B3LYP/6-311++G(d,p) empiricaldispersion=gd3bj scf=xqc pop=npa geom=check

CID_116606661_JID_7482_Energie_neutraal

0 1

--Link1--
%chk=JID_7482.chk
%mem=8GB
%nprocshared=4
# B3LYP/6-311++G(d,p) empiricaldispersion=gd3bj scf=xqc pop=npa geom=check

CID_116606661_JID_7482_Energie_kation

1 2

--Link1--
%chk=JID_7482.chk
%mem=8GB
%nprocshared=4
# B3LYP/6-311++G(d,p) empiricaldispersion=gd3bj scf=xqc pop=npa geom=check

CID_116606661_JID_7482_Energie_anion

-1 2
