%chk=JID_4474.chk
%mem=8GB
%nprocshared=4
# opt freq B3LYP/6-31G(d) empiricaldispersion=gd3bj scf=xqc

CID_107990342_JID_4474_neutraal

0 1
C         -2.73300        0.19800        0.03500
C         -1.32263       -0.14384       -0.13156
C         -0.17073       -0.44673       -0.29022
C          1.19598       -0.86657       -0.49698
O          1.76712       -0.58305       -1.53910
N          1.72873       -1.60006        0.53104
C          3.06855       -2.13920        0.47154
C          3.20907       -3.42495        1.28672
C          2.17092       -4.52493        0.95630
C          2.43251       -5.79054        1.79417
C          3.62875       -6.58713        1.27295
C          3.53378       -6.82653       -0.23257
N          3.34232       -5.57363       -0.96429
C          2.11594       -4.90197       -0.53328
H         -2.91378        1.24527       -0.22518
H         -3.36285       -0.42455       -0.60763
H         -3.05103        0.04612        1.07084
H          1.21070       -1.64594        1.39827
H          3.35932       -2.30252       -0.57150
H          3.74074       -1.37329        0.87435
H          4.23003       -3.79989        1.15255
H          3.11156       -3.17420        2.35145
H          1.18146       -4.14537        1.24356
H          2.58418       -5.53389        2.84902
H          1.54127       -6.43023        1.75298
H          4.55912       -6.05423        1.50270
H          3.68324       -7.54922        1.79521
H          4.45686       -7.30297       -0.57998
H          2.71368       -7.52083       -0.45387
H          3.27613       -5.77603       -1.96225
H          1.25233       -5.55465       -0.71716
H          1.95574       -4.01501       -1.15370

--Link1--
%chk=JID_4474.chk
%mem=8GB
%nprocshared=4
# B3LYP/6-311++G(d,p) empiricaldispersion=gd3bj scf=xqc pop=npa geom=check

CID_107990342_JID_4474_Energie_neutraal

0 1

--Link1--
%chk=JID_4474.chk
%mem=8GB
%nprocshared=4
# B3LYP/6-311++G(d,p) empiricaldispersion=gd3bj scf=xqc pop=npa geom=check

CID_107990342_JID_4474_Energie_kation

1 2

--Link1--
%chk=JID_4474.chk
%mem=8GB
%nprocshared=4
# B3LYP/6-311++G(d,p) empiricaldispersion=gd3bj scf=xqc pop=npa geom=check

CID_107990342_JID_4474_Energie_anion

-1 2
