%chk=JID_7229.chk
%mem=8GB
%nprocshared=4
# opt freq B3LYP/6-31G(d) empiricaldispersion=gd3bj scf=xqc

CID_129033997_JID_7229_neutraal

0 1
C          0.94800       -0.04824       -0.07049
C          0.11239       -0.32673       -1.31153
N          0.57052       -1.51677       -2.02502
C          1.74862       -1.63049       -2.76276
C          2.22261       -2.89280       -2.75750
C          1.26557       -3.65623       -1.91920
O          1.26677       -4.86235       -1.75188
N          0.36452       -2.74552       -1.39999
C          3.38955       -3.57043       -3.37214
N          3.61520       -3.06471       -4.72508
C          4.68948       -3.39512       -5.55862
C          4.41686       -3.66757       -6.84955
C          6.14886       -3.34259       -5.01867
C          6.37889       -2.06910       -4.17328
C          6.46792       -4.60068       -4.18714
C          7.21126       -3.28537       -6.15112
C          2.36570       -0.44335       -3.42947
H          0.89285       -0.87939        0.64018
H          0.58387        0.85193        0.43459
H          2.00191        0.10697       -0.32121
H         -0.93628       -0.46204       -1.02064
H          0.13766        0.54160       -1.97972
H         -0.55920       -3.04237       -1.11160
H          4.24882       -3.40523       -2.72017
H          3.22290       -4.65139       -3.43618
H          2.73503       -3.07785       -5.23999
H          5.17893       -3.91027       -7.57961
H          3.40022       -3.66880       -7.22963
H          5.77565       -2.04549       -3.26297
H          7.42496       -1.99155       -3.85339
H          6.14232       -1.16691       -4.74984
H          6.29164       -5.51266       -4.76964
H          7.51892       -4.60809       -3.87414
H          5.87082       -4.67249       -3.27588
H          7.22194       -4.20474       -6.74777
H          7.03608       -2.43722       -6.82341
H          8.22155       -3.16884       -5.73975
H          1.72278       -0.09106       -4.24232
H          2.50216        0.37742       -2.71870
H          3.35250       -0.65910       -3.84599

--Link1--
%chk=JID_7229.chk
%mem=8GB
%nprocshared=4
# B3LYP/6-311++G(d,p) empiricaldispersion=gd3bj scf=xqc pop=npa geom=check

CID_129033997_JID_7229_Energie_neutraal

0 1

--Link1--
%chk=JID_7229.chk
%mem=8GB
%nprocshared=4
# B3LYP/6-311++G(d,p) empiricaldispersion=gd3bj scf=xqc pop=npa geom=check

CID_129033997_JID_7229_Energie_kation

1 2

--Link1--
%chk=JID_7229.chk
%mem=8GB
%nprocshared=4
# B3LYP/6-311++G(d,p) empiricaldispersion=gd3bj scf=xqc pop=npa geom=check

CID_129033997_JID_7229_Energie_anion

-1 2
