%chk=JID_1998.chk
%mem=8GB
%nprocshared=4
# opt freq B3LYP/6-31G(d) empiricaldispersion=gd3bj scf=xqc

CID_131859609_JID_1998_neutraal

0 1
C          0.96878        0.06305       -0.07106
C          0.88112       -1.43364        0.02204
C          0.57767       -2.05093        1.17559
C          1.19282       -2.21075       -1.23886
C          0.04400       -2.19819       -2.25017
C          0.47386       -1.57270       -3.56872
N          1.20986       -2.14917       -4.47533
N          1.59132       -3.42472       -4.20549
C          0.92324       -4.43996       -5.03353
C          3.04273       -3.63961       -4.29807
C          0.05928       -0.14291       -3.81954
H          0.83441        0.54289        0.90431
H          0.19473        0.45132       -0.73935
H          1.94835        0.36538       -0.45511
H          0.52751       -3.13358        1.24503
H          0.36854       -1.49180        2.08280
H          2.12231       -1.81862       -1.66998
H          1.40887       -3.25542       -0.97777
H         -0.30072       -3.22130       -2.44013
H         -0.82896       -1.65283       -1.87283
H          1.18043       -4.33140       -6.09317
H          1.18800       -5.45065       -4.70435
H         -0.16426       -4.34796       -4.93679
H          3.41067       -3.49013       -5.31939
H          3.56821       -2.93674       -3.64192
H          3.31272       -4.64785       -3.96578
H         -1.00990       -0.02852       -3.62271
H          0.62322        0.51715       -3.15617
H          0.26002        0.14001       -4.85665

--Link1--
%chk=JID_1998.chk
%mem=8GB
%nprocshared=4
# B3LYP/6-311++G(d,p) empiricaldispersion=gd3bj scf=xqc pop=npa geom=check

CID_131859609_JID_1998_Energie_neutraal

0 1

--Link1--
%chk=JID_1998.chk
%mem=8GB
%nprocshared=4
# B3LYP/6-311++G(d,p) empiricaldispersion=gd3bj scf=xqc pop=npa geom=check

CID_131859609_JID_1998_Energie_kation

1 2

--Link1--
%chk=JID_1998.chk
%mem=8GB
%nprocshared=4
# B3LYP/6-311++G(d,p) empiricaldispersion=gd3bj scf=xqc pop=npa geom=check

CID_131859609_JID_1998_Energie_anion

-1 2
