%chk=JID_10451.chk
%mem=8GB
%nprocshared=4
# opt freq B3LYP/6-31G(d) empiricaldispersion=gd3bj scf=xqc

CID_151573431_JID_10451_neutraal

0 1
C          1.04442        0.01210       -0.08877
C          0.47119       -0.27604       -1.48258
C          0.97887       -1.62390       -2.06842
C          0.53497       -1.83775       -3.52651
C          1.08557       -3.15118       -4.07083
O          0.68696       -4.24437       -3.24722
C          1.17841       -4.12858       -1.91440
C          0.62787       -2.87305       -1.24405
N         -0.97619       -0.09445       -1.51897
C         -1.88224       -0.63811       -0.64797
N         -3.11075       -0.26204       -0.91552
C         -3.00404        0.57232       -1.99761
C         -1.67608        0.70451       -2.39956
C         -1.29769        1.51415       -3.47713
C         -2.31939        2.19522       -4.15132
C         -3.66336        2.06580       -3.77968
C         -4.01220        1.26135       -2.68757
N         -4.65455        2.78098       -4.46870
N         -5.08171        2.15609       -5.45928
N         -5.47528        1.59762       -6.37297
H          0.68554       -0.69502        0.66535
H          0.76023        1.01667        0.24496
H          2.13837       -0.03734       -0.10332
H          0.88223        0.51163       -2.12768
H          2.07731       -1.55554       -2.08087
H         -0.55976       -1.87702       -3.57556
H          0.86905       -1.00635       -4.15675
H          0.69341       -3.33038       -5.07695
H          2.17933       -3.12649       -4.14154
H          2.27472       -4.12646       -1.92689
H          0.85627       -5.01655       -1.36119
H          1.02807       -2.80171       -0.22799
H         -0.46009       -2.97508       -1.17251
H         -1.60155       -1.29763        0.16276
H         -0.26417        1.62468       -3.78566
H         -2.05799        2.84515       -4.98442
H         -5.04336        1.16702       -2.36643

--Link1--
%chk=JID_10451.chk
%mem=8GB
%nprocshared=4
# B3LYP/6-311++G(d,p) empiricaldispersion=gd3bj scf=xqc pop=npa geom=check

CID_151573431_JID_10451_Energie_neutraal

0 1

--Link1--
%chk=JID_10451.chk
%mem=8GB
%nprocshared=4
# B3LYP/6-311++G(d,p) empiricaldispersion=gd3bj scf=xqc pop=npa geom=check

CID_151573431_JID_10451_Energie_kation

1 2

--Link1--
%chk=JID_10451.chk
%mem=8GB
%nprocshared=4
# B3LYP/6-311++G(d,p) empiricaldispersion=gd3bj scf=xqc pop=npa geom=check

CID_151573431_JID_10451_Energie_anion

-1 2
