%chk=JID_6380.chk
%mem=8GB
%nprocshared=4
# opt freq B3LYP/6-31G(d) empiricaldispersion=gd3bj scf=xqc

CID_150807307_JID_6380_neutraal

0 1
C          0.90338        0.02417        0.00899
C          0.98468        1.27217        0.79273
N          0.88706        2.48025       -0.02455
C          0.35624        3.56258        0.84887
C          0.90337        3.57564        2.30442
C          2.42337        3.57564        2.30443
N          3.68434        3.57565        2.30443
N          0.41267        4.76713        3.04247
N          0.79734        5.88468        2.65054
N          1.14107        6.90501        2.28033
C          2.08890        2.94265       -0.78023
C          3.27536        1.98224       -1.04129
C          3.16867        1.07802       -2.26932
C          2.71760        1.82951       -3.51077
C          1.42821        2.59131       -3.23785
C          1.63072        3.59356       -2.10708
H          0.33363        0.13621       -0.91965
H          0.40069       -0.75893        0.59016
H          1.89214       -0.37739       -0.22169
H          0.10649        1.21945        1.45114
H          1.86799        1.23819        1.43721
H          0.49179        4.53950        0.36718
H         -0.73399        3.43770        0.90537
H          0.55533        2.70902        2.87521
H          2.53923        3.76290       -0.20983
H          4.16446        2.61261       -1.19204
H          3.51300        1.38821       -0.15263
H          2.47219        0.25649       -2.09867
H          4.14433        0.61349       -2.45715
H          2.56760        1.12241       -4.33429
H          3.50408        2.52591       -3.82663
H          0.62276        1.89186       -2.98535
H          1.12247        3.12162       -4.14656
H          0.71033        4.17302       -1.96706
H          2.39308        4.32142       -2.41718

--Link1--
%chk=JID_6380.chk
%mem=8GB
%nprocshared=4
# B3LYP/6-311++G(d,p) empiricaldispersion=gd3bj scf=xqc pop=npa geom=check

CID_150807307_JID_6380_Energie_neutraal

0 1

--Link1--
%chk=JID_6380.chk
%mem=8GB
%nprocshared=4
# B3LYP/6-311++G(d,p) empiricaldispersion=gd3bj scf=xqc pop=npa geom=check

CID_150807307_JID_6380_Energie_kation

1 2

--Link1--
%chk=JID_6380.chk
%mem=8GB
%nprocshared=4
# B3LYP/6-311++G(d,p) empiricaldispersion=gd3bj scf=xqc pop=npa geom=check

CID_150807307_JID_6380_Energie_anion

-1 2
