%chk=JID_1739.chk
%mem=8GB
%nprocshared=4
# opt freq B3LYP/6-31G(d) empiricaldispersion=gd3bj scf=xqc

CID_123681641_JID_1739_neutraal

0 1
C          1.04763        0.08173        0.03243
C          0.54620       -1.27435        0.51778
C          0.77006       -1.54992        2.03072
C          0.18144       -0.39819        2.92136
C         -1.33077       -0.20259        2.75824
C          0.51724       -0.53705        4.40878
C          0.29857       -2.98737        2.48678
C          0.00756       -3.96622        1.33519
C          1.34632       -3.62743        3.43987
N          0.82048       -4.83908        4.07706
C          1.78395       -5.40565        5.01075
H          0.43344        0.90228        0.41352
H          1.00355        0.12538       -1.06091
H          2.08589        0.24902        0.33533
H         -0.51423       -1.36801        0.25967
H          1.08483       -2.03147       -0.06407
H          1.86057       -1.51241        2.17174
H          0.66029        0.53766        2.60709
H         -1.89654       -1.08009        3.08392
H         -1.67158        0.64801        3.35939
H         -1.60164        0.01215        1.72093
H          1.59631       -0.64734        4.55613
H          0.20661        0.36027        4.95591
H          0.00630       -1.38905        4.86724
H         -0.64116       -2.88356        3.04141
H          0.90585       -4.16314        0.74071
H         -0.35269       -4.92905        1.71313
H         -0.77741       -3.58543        0.67508
H          2.24915       -3.87390        2.86703
H          1.64096       -2.91776        4.21673
H         -0.03931       -4.61362        4.57586
H          2.01261       -4.70855        5.82348
H          1.36751       -6.31483        5.45566
H          2.71308       -5.68278        4.50302

--Link1--
%chk=JID_1739.chk
%mem=8GB
%nprocshared=4
# B3LYP/6-311++G(d,p) empiricaldispersion=gd3bj scf=xqc pop=npa geom=check

CID_123681641_JID_1739_Energie_neutraal

0 1

--Link1--
%chk=JID_1739.chk
%mem=8GB
%nprocshared=4
# B3LYP/6-311++G(d,p) empiricaldispersion=gd3bj scf=xqc pop=npa geom=check

CID_123681641_JID_1739_Energie_kation

1 2

--Link1--
%chk=JID_1739.chk
%mem=8GB
%nprocshared=4
# B3LYP/6-311++G(d,p) empiricaldispersion=gd3bj scf=xqc pop=npa geom=check

CID_123681641_JID_1739_Energie_anion

-1 2
