%chk=JID_10258.chk
%mem=8GB
%nprocshared=4
# opt freq B3LYP/6-31G(d) empiricaldispersion=gd3bj scf=xqc

CID_76148848_JID_10258_neutraal

0 1
C          2.22400        0.03500        0.00200
C          1.01203       -0.80163       -0.02361
C         -0.28497       -0.60165       -0.41896
C         -0.93977       -1.84361       -0.18128
N         -0.07378       -2.72067        0.35542
O          1.14102       -2.07063        0.44089
C         -2.36139       -2.11482       -0.43386
O         -3.13948       -1.19019       -0.68074
N         -2.86478       -3.39325       -0.42282
C         -2.23802       -4.65226       -0.04485
C         -2.28640       -4.90239        1.47519
C         -1.14728       -5.83864        1.90525
C         -1.66944       -6.42669        3.20256
C         -3.15024       -6.65431        2.90999
N         -3.48759       -5.64045        1.91426
C         -4.74143       -5.12500        1.78755
N         -5.01180       -3.99838        1.15968
C         -6.36430       -3.72511        1.17787
C         -7.14774       -4.66601        1.80047
S         -6.16120       -5.93113        2.38711
H          2.02917        1.02183       -0.42911
H          2.57141        0.17486        1.03018
H          3.02744       -0.43488       -0.57351
H         -0.72106        0.29860       -0.82693
H         -3.87983       -3.39742       -0.34632
H         -2.78484       -5.43910       -0.57799
H         -1.21600       -4.66905       -0.43019
H         -2.21142       -3.96283        2.03886
H         -0.99440       -6.63895        1.17026
H         -0.19952       -5.30874        2.03772
H         -1.15431       -7.34677        3.49221
H         -1.55449       -5.69962        4.01567
H         -3.30996       -7.65240        2.48670
H         -3.72369       -6.56440        3.83906
H         -6.72700       -2.81687        0.71178
H         -8.21972       -4.67141        1.93134

--Link1--
%chk=JID_10258.chk
%mem=8GB
%nprocshared=4
# B3LYP/6-311++G(d,p) empiricaldispersion=gd3bj scf=xqc pop=npa geom=check

CID_76148848_JID_10258_Energie_neutraal

0 1

--Link1--
%chk=JID_10258.chk
%mem=8GB
%nprocshared=4
# B3LYP/6-311++G(d,p) empiricaldispersion=gd3bj scf=xqc pop=npa geom=check

CID_76148848_JID_10258_Energie_kation

1 2

--Link1--
%chk=JID_10258.chk
%mem=8GB
%nprocshared=4
# B3LYP/6-311++G(d,p) empiricaldispersion=gd3bj scf=xqc pop=npa geom=check

CID_76148848_JID_10258_Energie_anion

-1 2
