%chk=JID_6274.chk
%mem=8GB
%nprocshared=4
# opt freq B3LYP/6-31G(d) empiricaldispersion=gd3bj scf=xqc

CID_118308716_JID_6274_neutraal

0 1
C          0.90652        0.02446       -0.02577
C          0.49949        1.42623        0.38734
O          1.07327        2.39020       -0.51174
C          2.33876        2.81477       -0.22106
O          2.97204        2.44076        0.75950
C          2.84901        3.80005       -1.24603
C          4.28384        4.24241       -0.95317
O          4.48227        5.61199       -1.33469
C          3.64885        6.52070       -0.60563
O          2.34990        5.98087       -0.33264
C          1.94385        5.02684       -1.32505
C          3.50145        7.78635       -1.45095
C          4.29941        6.87578        0.73136
N          2.83289        3.03760       -2.54023
O          3.54937        2.02816       -2.61580
O          2.09986        3.43726       -3.45549
H          0.62198       -0.16751       -1.06555
H          0.42965       -0.72269        0.61479
H          1.99186       -0.10365        0.03563
H         -0.58796        1.53117        0.31574
H          0.77640        1.63712        1.42642
H          5.03480        3.65677       -1.49432
H          4.54636        4.14912        0.10617
H          1.96621        5.52698       -2.30057
H          0.89385        4.78740       -1.12578
H          3.07046        7.55542       -2.43130
H          2.83788        8.51226       -0.96926
H          4.47405        8.25503       -1.63617
H          3.71566        7.63228        1.26713
H          4.35398        6.00131        1.38855
H          5.32170        7.24248        0.59157

--Link1--
%chk=JID_6274.chk
%mem=8GB
%nprocshared=4
# B3LYP/6-311++G(d,p) empiricaldispersion=gd3bj scf=xqc pop=npa geom=check

CID_118308716_JID_6274_Energie_neutraal

0 1

--Link1--
%chk=JID_6274.chk
%mem=8GB
%nprocshared=4
# B3LYP/6-311++G(d,p) empiricaldispersion=gd3bj scf=xqc pop=npa geom=check

CID_118308716_JID_6274_Energie_kation

1 2

--Link1--
%chk=JID_6274.chk
%mem=8GB
%nprocshared=4
# B3LYP/6-311++G(d,p) empiricaldispersion=gd3bj scf=xqc pop=npa geom=check

CID_118308716_JID_6274_Energie_anion

-1 2
