%chk=JID_5776.chk
%mem=8GB
%nprocshared=4
# opt freq B3LYP/6-31G(d) empiricaldispersion=gd3bj scf=xqc

CID_83627833_JID_5776_neutraal

0 1
C          1.04804       -0.07171       -0.05050
C          0.26505       -0.69228        1.10057
C         -0.15032        0.24369        2.21511
C         -0.49909       -0.31227        3.46290
C         -0.91602        0.48043        4.53983
C         -1.02106        1.87530        4.34808
C         -0.69082        2.42874        3.10030
C         -0.26109        1.62351        2.04687
C         -1.47235        2.81195        5.43887
N         -1.27951       -0.04331        5.79770
C         -1.12122       -1.27534        6.38971
O         -1.60207       -1.50265        7.49848
C         -0.27954       -2.36607        5.72999
O          0.93406       -2.37109        5.67756
O         -1.03439       -3.35024        5.22204
H          0.43635        0.63960       -0.61472
H          1.37033       -0.85216       -0.74767
H          1.94056        0.44980        0.31078
H          0.88739       -1.48790        1.52999
H         -0.63835       -1.16725        0.69909
H         -0.46325       -1.39149        3.53435
H         -0.76702        3.50227        2.93726
H         -0.02492        2.09816        1.09841
H         -2.50830        2.59621        5.71935
H         -0.82412        2.71616        6.31600
H         -1.42998        3.85828        5.11757
H         -1.72989        0.59263        6.44254
H         -0.38817       -4.01550        4.90921

--Link1--
%chk=JID_5776.chk
%mem=8GB
%nprocshared=4
# B3LYP/6-311++G(d,p) empiricaldispersion=gd3bj scf=xqc pop=npa geom=check

CID_83627833_JID_5776_Energie_neutraal

0 1

--Link1--
%chk=JID_5776.chk
%mem=8GB
%nprocshared=4
# B3LYP/6-311++G(d,p) empiricaldispersion=gd3bj scf=xqc pop=npa geom=check

CID_83627833_JID_5776_Energie_kation

1 2

--Link1--
%chk=JID_5776.chk
%mem=8GB
%nprocshared=4
# B3LYP/6-311++G(d,p) empiricaldispersion=gd3bj scf=xqc pop=npa geom=check

CID_83627833_JID_5776_Energie_anion

-1 2
