%chk=JID_9990.chk
%mem=8GB
%nprocshared=4
# opt freq B3LYP/6-31G(d) empiricaldispersion=gd3bj scf=xqc

CID_105080064_JID_9990_neutraal

0 1
C          2.91400       -0.01100        0.00300
C          1.41784       -0.11068        0.01796
C          0.79765       -1.36043        0.11613
C         -0.60309       -1.49108        0.07023
C         -1.39619       -0.33525       -0.07600
C         -0.76656        0.91577       -0.17031
C          0.62445        1.02626       -0.13499
C         -2.89850       -0.39433       -0.11343
C         -1.19630       -2.88201        0.13267
C         -1.35417       -3.54992       -1.24997
C         -0.04212       -4.00955       -1.84671
C          0.58505       -3.34887       -2.90474
N          1.78485       -3.75862       -3.38164
N          2.41792       -4.84137       -2.83926
C          1.84178       -5.51549       -1.82697
C          0.61779       -5.12390       -1.30981
C          2.56946       -6.69850       -1.27405
C         -0.00699       -2.16054       -3.59800
O         -2.19644       -4.70245       -1.10892
H          3.36067       -0.76216        0.66291
H          3.28869       -0.16325       -1.01391
H          3.24561        0.97059        0.35755
H          1.42020       -2.24976        0.21287
H         -1.35822        1.82258       -0.27975
H          1.08291        2.00815       -0.22780
H         -3.23846       -1.08584       -0.89023
H         -3.28764       -0.71438        0.85821
H         -3.33423        0.58466       -0.34027
H         -0.58980       -3.51058        0.79920
H         -2.17151       -2.84250        0.63418
H         -1.87754       -2.88038       -1.93962
H          0.16902       -5.68365       -0.49367
H          3.51693       -6.85522       -1.79968
H          2.79073       -6.54472       -0.21325
H          1.96359       -7.60281       -1.38703
H          0.66192       -1.79718       -4.38567
H         -0.95737       -2.42899       -4.06933
H         -0.16651       -1.33708       -2.89784
H         -3.08976       -4.38068       -0.90039

--Link1--
%chk=JID_9990.chk
%mem=8GB
%nprocshared=4
# B3LYP/6-311++G(d,p) empiricaldispersion=gd3bj scf=xqc pop=npa geom=check

CID_105080064_JID_9990_Energie_neutraal

0 1

--Link1--
%chk=JID_9990.chk
%mem=8GB
%nprocshared=4
# B3LYP/6-311++G(d,p) empiricaldispersion=gd3bj scf=xqc pop=npa geom=check

CID_105080064_JID_9990_Energie_kation

1 2

--Link1--
%chk=JID_9990.chk
%mem=8GB
%nprocshared=4
# B3LYP/6-311++G(d,p) empiricaldispersion=gd3bj scf=xqc pop=npa geom=check

CID_105080064_JID_9990_Energie_anion

-1 2
