%chk=JID_7035.chk
%mem=8GB
%nprocshared=4
# opt freq B3LYP/6-31G(d) empiricaldispersion=gd3bj scf=xqc

CID_81575040_JID_7035_neutraal

0 1
C          1.06097        0.05225        0.05960
C          0.32467       -1.21062        0.47250
C          1.13089       -2.48607        0.34714
C          0.35134       -3.44446        1.22881
O         -0.38165       -2.66787        2.19311
C         -0.16375       -1.27364        1.91559
C          0.79545       -0.76810        2.95236
N          2.07471       -1.06703        3.09255
C          2.51824       -0.31537        4.14642
C          1.49386        0.46425        4.66818
N          0.40032        0.13375        3.91458
C          1.69583        1.34837        5.72275
C          3.00156        1.39006        6.20586
C          3.96896        0.55704        5.64554
N          3.78263       -0.29635        4.62061
O          5.25944        0.63807        6.11804
C          5.36638       -0.07927        7.34470
H          0.44555        0.93817        0.24663
H          1.29297        0.02299       -1.01040
H          2.00817        0.17380        0.59402
H         -0.55444       -1.31614       -0.17973
H          1.21702       -2.84588       -0.68264
H          2.14713       -2.35652        0.73601
H          1.00242       -4.15316        1.74875
H         -0.37810       -4.01259        0.64192
H         -1.12502       -0.75627        2.01453
H         -0.53212        0.50190        4.02678
H          0.90903        1.97165        6.12806
H          3.26790        2.06923        7.00876
H          5.01258        0.54229        8.17449
H          4.82171       -1.03052        7.32552
H          6.42453       -0.29813        7.51678

--Link1--
%chk=JID_7035.chk
%mem=8GB
%nprocshared=4
# B3LYP/6-311++G(d,p) empiricaldispersion=gd3bj scf=xqc pop=npa geom=check

CID_81575040_JID_7035_Energie_neutraal

0 1

--Link1--
%chk=JID_7035.chk
%mem=8GB
%nprocshared=4
# B3LYP/6-311++G(d,p) empiricaldispersion=gd3bj scf=xqc pop=npa geom=check

CID_81575040_JID_7035_Energie_kation

1 2

--Link1--
%chk=JID_7035.chk
%mem=8GB
%nprocshared=4
# B3LYP/6-311++G(d,p) empiricaldispersion=gd3bj scf=xqc pop=npa geom=check

CID_81575040_JID_7035_Energie_anion

-1 2
