%chk=JID_5168.chk
%mem=8GB
%nprocshared=4
# opt freq B3LYP/6-31G(d) empiricaldispersion=gd3bj scf=xqc

CID_91020149_JID_5168_neutraal

0 1
C          0.94418        0.08258        0.00803
C          0.65292        0.40283       -1.45062
C          1.10101       -0.69822       -2.42475
C          0.38739       -2.06374       -2.26984
C         -1.16144       -1.94910       -2.39560
C         -1.76229       -1.11563       -3.55693
C         -1.38246       -1.66845       -4.93392
C         -3.30998       -1.05745       -3.45774
C         -3.85259       -0.06954       -2.44386
C         -4.16994        1.18499       -2.80609
C         -4.11465       -0.55876       -1.04742
C          0.96289       -3.23464       -3.14809
C          2.28528       -2.91101       -3.85732
C          1.17693       -4.53329       -2.32636
C         -0.09429       -5.13706       -1.74846
H          0.33836       -0.75567        0.36384
H          0.71003        0.94850        0.63571
H          2.00030       -0.16498        0.15367
H         -0.41245        0.62374       -1.56536
H          1.18719        1.32446       -1.71250
H          0.97454       -0.32511       -3.44729
H          2.17877       -0.83282       -2.27529
H          0.57128       -2.36803       -1.23057
H         -1.60090       -2.95250       -2.42703
H         -1.50830       -1.51741       -1.45242
H         -1.38327       -0.08886       -3.50655
H         -1.70176       -2.70968       -5.04688
H         -1.85630       -1.08547       -5.73165
H         -0.30473       -1.60881       -5.10549
H         -3.71963       -0.78172       -4.43988
H         -3.71657       -2.05696       -3.25618
H         -4.59006        1.89380       -2.09868
H         -4.01525        1.53917       -3.82116
H         -4.59507       -1.54205       -1.06528
H         -3.18659       -0.63020       -0.47555
H         -4.78236        0.11672       -0.50103
H          0.24404       -3.48480       -3.93457
H          3.09058       -2.72009       -3.14044
H          2.60010       -3.75185       -4.48595
H          2.18475       -2.04440       -4.51752
H          1.63797       -5.29166       -2.97225
H          1.88810       -4.34576       -1.51232
H         -0.83964       -5.30771       -2.53153
H          0.12908       -6.10229       -1.28223
H         -0.53225       -4.49613       -0.97834

--Link1--
%chk=JID_5168.chk
%mem=8GB
%nprocshared=4
# B3LYP/6-311++G(d,p) empiricaldispersion=gd3bj scf=xqc pop=npa geom=check

CID_91020149_JID_5168_Energie_neutraal

0 1

--Link1--
%chk=JID_5168.chk
%mem=8GB
%nprocshared=4
# B3LYP/6-311++G(d,p) empiricaldispersion=gd3bj scf=xqc pop=npa geom=check

CID_91020149_JID_5168_Energie_kation

1 2

--Link1--
%chk=JID_5168.chk
%mem=8GB
%nprocshared=4
# B3LYP/6-311++G(d,p) empiricaldispersion=gd3bj scf=xqc pop=npa geom=check

CID_91020149_JID_5168_Energie_anion

-1 2
