%chk=JID_3304.chk
%mem=8GB
%nprocshared=4
# opt freq B3LYP/6-31G(d) empiricaldispersion=gd3bj scf=xqc

CID_141879094_JID_3304_neutraal

0 1
C          1.03861       -0.06101       -0.06919
C          0.53425        1.36086       -0.14127
C          1.39643        2.44294        0.10118
C          0.96771        3.75604       -0.03207
C         -0.35260        4.01980       -0.37541
C         -1.26711        2.97532       -0.59180
C         -0.82465        1.63008       -0.49099
C         -1.71951        0.48705       -0.79185
C         -3.02461        0.40410       -0.49188
C         -3.85036        1.47831        0.14121
C         -3.76491        2.77121       -0.60657
C         -2.63310        3.40327       -0.95085
O          2.70098        2.29278        0.48026
H          0.99963       -0.52451       -1.06061
H          0.43528       -0.64348        0.63508
H          2.07553       -0.13961        0.26503
H          1.65894        4.57539        0.14499
H         -0.66770        5.05786       -0.45927
H         -1.26242       -0.36562       -1.28626
H         -3.55193       -0.51279       -0.74569
H         -4.89741        1.15020        0.13100
H         -3.58389        1.61307        1.19553
H         -4.71268        3.22101       -0.89328
H         -2.70987        4.34001       -1.49895
H          2.76726        1.50650        1.04423

--Link1--
%chk=JID_3304.chk
%mem=8GB
%nprocshared=4
# B3LYP/6-311++G(d,p) empiricaldispersion=gd3bj scf=xqc pop=npa geom=check

CID_141879094_JID_3304_Energie_neutraal

0 1

--Link1--
%chk=JID_3304.chk
%mem=8GB
%nprocshared=4
# B3LYP/6-311++G(d,p) empiricaldispersion=gd3bj scf=xqc pop=npa geom=check

CID_141879094_JID_3304_Energie_kation

1 2

--Link1--
%chk=JID_3304.chk
%mem=8GB
%nprocshared=4
# B3LYP/6-311++G(d,p) empiricaldispersion=gd3bj scf=xqc pop=npa geom=check

CID_141879094_JID_3304_Energie_anion

-1 2
