%chk=JID_9684.chk
%mem=8GB
%nprocshared=4
# opt freq B3LYP/6-31G(d) empiricaldispersion=gd3bj scf=xqc

CID_113357288_JID_9684_neutraal

0 1
C          0.99376       -0.00200        0.09979
C          0.41339        0.07721       -1.30540
C          0.91425       -1.03448       -2.25505
C          0.70472       -2.46230       -1.69815
C         -0.74133       -2.84124       -1.40643
C          0.27923       -0.91047       -3.66181
N          0.68265        0.32321       -4.33825
C          0.17064        0.41039       -5.73262
C         -1.34939        0.41731       -5.81771
C         -2.11476        1.44924       -5.24836
C         -3.50869        1.42326       -5.31918
C         -4.15611        0.36680       -5.95555
C         -3.41152       -0.66405       -6.52408
C         -2.01739       -0.63976       -6.45702
C          0.76608        1.63958       -6.45703
O          1.00748        1.67467       -7.65977
O          0.92628        2.69981       -5.60450
C          1.44200        3.90174       -6.19247
C          2.95859        3.87228       -6.20026
H          0.62751       -0.87951        0.64007
H          0.70091        0.88207        0.67561
H          2.08724       -0.04005        0.07200
H         -0.68110        0.06402       -1.24520
H          0.68807        1.05646       -1.71416
H          2.00032       -0.90549       -2.36902
H          1.11417       -3.18619       -2.41430
H          1.29442       -2.58973       -0.78287
H         -1.35572       -2.81237       -2.31073
H         -0.78480       -3.86184       -1.01197
H         -1.19054       -2.18029       -0.66005
H          0.59648       -1.76839       -4.26719
H         -0.81105       -0.95310       -3.56650
H          0.35045        1.14094       -3.82986
H          0.57501       -0.45492       -6.27523
H         -1.63272        2.28247       -4.74170
H         -4.08992        2.22797       -4.87619
H         -5.24146        0.34700       -6.00902
H         -3.91664       -1.48870       -7.02054
H         -1.45490       -1.45632       -6.90547
H          1.03743        4.06068       -7.19855
H          1.09409        4.73474       -5.57277
H          3.33263        3.04666       -6.81379
H          3.36251        4.80987       -6.59253
H          3.34514        3.71731       -5.18758

--Link1--
%chk=JID_9684.chk
%mem=8GB
%nprocshared=4
# B3LYP/6-311++G(d,p) empiricaldispersion=gd3bj scf=xqc pop=npa geom=check

CID_113357288_JID_9684_Energie_neutraal

0 1

--Link1--
%chk=JID_9684.chk
%mem=8GB
%nprocshared=4
# B3LYP/6-311++G(d,p) empiricaldispersion=gd3bj scf=xqc pop=npa geom=check

CID_113357288_JID_9684_Energie_kation

1 2

--Link1--
%chk=JID_9684.chk
%mem=8GB
%nprocshared=4
# B3LYP/6-311++G(d,p) empiricaldispersion=gd3bj scf=xqc pop=npa geom=check

CID_113357288_JID_9684_Energie_anion

-1 2
