%chk=JID_1907.chk
%mem=8GB
%nprocshared=4
# opt freq B3LYP/6-31G(d) empiricaldispersion=gd3bj scf=xqc

CID_143500415_JID_1907_neutraal

0 1
C          0.97162        0.09585       -0.00261
N          0.62661        1.35536        0.64377
C         -0.81857        1.57467        0.63938
C          1.21836        1.51991        1.98061
C          0.73284        0.57455        3.03162
C          1.15277       -0.66424        3.48795
C          0.25140       -1.02124        4.53052
C         -0.63877        0.01712        4.65073
O         -0.35390        0.98978        3.75008
C          2.27851       -1.42284        2.99094
O          2.57898       -2.53565        3.41122
H          0.62792        0.09562       -1.04330
H          0.52786       -0.77200        0.49661
H          2.05827       -0.03796       -0.03665
H         -1.36721        0.78700        1.16749
H         -1.06851        2.53937        1.09470
H         -1.19280        1.61066       -0.39009
H          2.30982        1.44087        1.89973
H          1.03897        2.54887        2.31959
H          0.26461       -1.92771        5.12095
H         -1.48600        0.20807        5.29492
H          2.87425       -0.94700        2.19513

--Link1--
%chk=JID_1907.chk
%mem=8GB
%nprocshared=4
# B3LYP/6-311++G(d,p) empiricaldispersion=gd3bj scf=xqc pop=npa geom=check

CID_143500415_JID_1907_Energie_neutraal

0 1

--Link1--
%chk=JID_1907.chk
%mem=8GB
%nprocshared=4
# B3LYP/6-311++G(d,p) empiricaldispersion=gd3bj scf=xqc pop=npa geom=check

CID_143500415_JID_1907_Energie_kation

1 2

--Link1--
%chk=JID_1907.chk
%mem=8GB
%nprocshared=4
# B3LYP/6-311++G(d,p) empiricaldispersion=gd3bj scf=xqc pop=npa geom=check

CID_143500415_JID_1907_Energie_anion

-1 2
