%chk=JID_8729.chk
%mem=8GB
%nprocshared=4
# opt freq B3LYP/6-31G(d) empiricaldispersion=gd3bj scf=xqc

CID_106124851_JID_8729_neutraal

0 1
C          2.49200        0.00400       -0.01400
C          0.98890        0.07975        0.00757
C          0.26748       -1.09429        0.29150
C         -1.12582       -1.09341        0.32008
C         -1.82082        0.08060        0.06293
C         -1.12165        1.25473       -0.21862
C          0.28944        1.28358       -0.24422
C          1.01363        2.59428       -0.56571
C          0.76075        2.98537       -2.02669
N          0.62079        3.64440        0.38696
C          1.45757        4.84227        0.35756
C          0.80335        6.06258       -0.33591
C          1.81704        7.21666       -0.46816
C          2.11179        7.90713        0.86162
C          0.83161        8.38627        1.54267
C         -0.18815        7.25985        1.69727
C         -0.47173        6.57184        0.36455
O          1.14508        8.92855        2.82051
H          2.84753       -1.01695        0.16256
H          2.87539        0.31498       -0.99109
H          2.91562        0.63819        0.77120
H          0.79282       -2.02523        0.49449
H         -1.66568       -2.00957        0.54318
H         -2.90717        0.08646        0.08336
H         -1.69251        2.15820       -0.41757
H          2.09011        2.43627       -0.44999
H         -0.28181        3.27508       -2.19984
H          1.39784        3.82291       -2.32838
H          0.98717        2.14926       -2.69859
H         -0.36032        3.87236        0.26199
H          1.68264        5.09346        1.39963
H          2.42972        4.63066       -0.10509
H          0.52206        5.76217       -1.35272
H          1.41485        7.96044       -1.16838
H          2.75250        6.85275       -0.90933
H          2.78003        8.76139        0.69742
H          2.66281        7.23271        1.52864
H          0.38911        9.19519        0.94950
H          0.16346        6.53000        2.43661
H         -1.11920        7.66624        2.11126
H         -0.96600        7.29370       -0.29946
H         -1.19373        5.76337        0.51671
H          1.50488        8.21220        3.37139

--Link1--
%chk=JID_8729.chk
%mem=8GB
%nprocshared=4
# B3LYP/6-311++G(d,p) empiricaldispersion=gd3bj scf=xqc pop=npa geom=check

CID_106124851_JID_8729_Energie_neutraal

0 1

--Link1--
%chk=JID_8729.chk
%mem=8GB
%nprocshared=4
# B3LYP/6-311++G(d,p) empiricaldispersion=gd3bj scf=xqc pop=npa geom=check

CID_106124851_JID_8729_Energie_kation

1 2

--Link1--
%chk=JID_8729.chk
%mem=8GB
%nprocshared=4
# B3LYP/6-311++G(d,p) empiricaldispersion=gd3bj scf=xqc pop=npa geom=check

CID_106124851_JID_8729_Energie_anion

-1 2
