%chk=JID_3364.chk
%mem=8GB
%nprocshared=4
# opt freq B3LYP/6-31G(d) empiricaldispersion=gd3bj scf=xqc

CID_60973349_JID_3364_neutraal

0 1
C          1.04761        0.04765       -0.07392
C          0.65057        1.44565        0.38197
C          1.15601        2.57666       -0.53953
C          0.61641        2.42352       -1.96395
N          0.77727        3.84136        0.10295
C          1.18152        5.06215       -0.60744
C          0.02349        5.69102       -1.42749
N         -1.26731        5.59320       -0.71958
C         -2.37476        5.27334       -1.62433
C         -3.60238        5.53519       -0.76795
C         -3.15476        6.56931        0.25924
C         -1.68456        6.84403       -0.06498
C         -0.88903        7.20405        1.18134
H          0.53162       -0.23929       -0.99449
H          0.77720       -0.68573        0.69292
H          2.12706       -0.02021       -0.24098
H         -0.44290        1.48794        0.47048
H          1.05375        1.59753        1.39212
H          2.25149        2.52124       -0.57440
H         -0.47626        2.48611       -1.98766
H          1.02387        3.18857       -2.63131
H          0.90847        1.46294       -2.39903
H         -0.24331        3.89918        0.20741
H          1.48958        5.78264        0.15786
H          2.06143        4.90210       -1.24133
H          0.27174        6.72536       -1.69529
H         -0.03950        5.14581       -2.37655
H         -2.38220        5.93102       -2.50288
H         -2.34180        4.23365       -1.96467
H         -3.91961        4.61938       -0.25487
H         -4.44487        5.89288       -1.36800
H         -3.28516        6.16392        1.26994
H         -3.75302        7.48408        0.18762
H         -1.63749        7.68236       -0.77452
H          0.13506        7.49294        0.92689
H         -1.35023        8.05344        1.69709
H         -0.84369        6.36773        1.88711

--Link1--
%chk=JID_3364.chk
%mem=8GB
%nprocshared=4
# B3LYP/6-311++G(d,p) empiricaldispersion=gd3bj scf=xqc pop=npa geom=check

CID_60973349_JID_3364_Energie_neutraal

0 1

--Link1--
%chk=JID_3364.chk
%mem=8GB
%nprocshared=4
# B3LYP/6-311++G(d,p) empiricaldispersion=gd3bj scf=xqc pop=npa geom=check

CID_60973349_JID_3364_Energie_kation

1 2

--Link1--
%chk=JID_3364.chk
%mem=8GB
%nprocshared=4
# B3LYP/6-311++G(d,p) empiricaldispersion=gd3bj scf=xqc pop=npa geom=check

CID_60973349_JID_3364_Energie_anion

-1 2
