%chk=JID_7193.chk
%mem=8GB
%nprocshared=4
# opt freq B3LYP/6-31G(d) empiricaldispersion=gd3bj scf=xqc

CID_21800317_JID_7193_neutraal

0 1
C          0.90710        0.03374       -0.01524
C          1.24658        0.85014       -1.25369
C          2.02695        0.05660       -2.29789
O          1.18768       -0.93117       -2.91592
C          1.34164       -2.21486       -2.50086
O          2.10933       -2.59529       -1.62782
C          0.41255       -3.13112       -3.24919
C         -1.02153       -2.97637       -2.72875
C         -1.84797       -1.99603       -3.54714
C         -2.32853       -0.81776       -2.95550
C         -3.08476        0.09294       -3.69592
C         -3.37203       -0.16199       -5.03482
C         -2.90340       -1.32765       -5.63549
C         -2.14607       -2.23915       -4.89775
C         -1.71810       -4.31683       -2.59005
O         -2.49619       -4.62979       -1.70195
O         -1.46570       -5.18195       -3.59342
H          0.22734       -0.78920       -0.25368
H          0.41292        0.66718        0.72834
H          1.81069       -0.38240        0.44112
H          0.31367        1.22162       -1.69336
H          1.84064        1.71937       -0.94986
H          2.34265        0.73554       -3.09758
H          2.93968       -0.37789       -1.87430
H          0.51721       -2.94148       -4.32334
H          0.79264       -4.14703       -3.08157
H         -0.96457       -2.60122       -1.69623
H         -2.11817       -0.59637       -1.91112
H         -3.45136        1.00200       -3.22611
H         -3.96213        0.54695       -5.60950
H         -3.12822       -1.52848       -6.67986
H         -1.79219       -3.14296       -5.39029
H         -2.02387       -5.95856       -3.37359

--Link1--
%chk=JID_7193.chk
%mem=8GB
%nprocshared=4
# B3LYP/6-311++G(d,p) empiricaldispersion=gd3bj scf=xqc pop=npa geom=check

CID_21800317_JID_7193_Energie_neutraal

0 1

--Link1--
%chk=JID_7193.chk
%mem=8GB
%nprocshared=4
# B3LYP/6-311++G(d,p) empiricaldispersion=gd3bj scf=xqc pop=npa geom=check

CID_21800317_JID_7193_Energie_kation

1 2

--Link1--
%chk=JID_7193.chk
%mem=8GB
%nprocshared=4
# B3LYP/6-311++G(d,p) empiricaldispersion=gd3bj scf=xqc pop=npa geom=check

CID_21800317_JID_7193_Energie_anion

-1 2
