%chk=JID_5150.chk
%mem=8GB
%nprocshared=4
# opt freq B3LYP/6-31G(d) empiricaldispersion=gd3bj scf=xqc

CID_84120621_JID_5150_neutraal

0 1
C          2.49200        0.00400       -0.01400
C          1.00256        0.09155        0.20850
C          0.31298       -1.14083        0.16893
C         -1.06711       -1.20966        0.31738
C         -1.78697       -0.04265        0.50011
C         -1.12143        1.18434        0.56497
C          0.28736        1.29178        0.47339
C          0.94938        2.69930        0.54252
C          1.07040        3.16000       -0.93401
C          0.15073        3.81849        1.29571
O          0.22631        3.82065        2.72435
C         -0.49334        2.78661        3.37438
C          2.30981        2.70650        1.24965
O          2.64852        2.04024        2.21694
O          3.18647        3.60431        0.74757
H          3.01043       -0.14676        0.93704
H          2.73572       -0.84386       -0.66533
H          2.89115        0.88425       -0.52057
H          0.86264       -2.06697        0.00641
H         -1.57510       -2.16874        0.27348
H         -2.86943       -0.07954        0.59129
H         -1.75158        2.06011        0.68578
H          0.08869        3.18737       -1.42262
H          1.49853        4.16580       -1.01743
H          1.71125        2.49579       -1.52324
H          0.58476        4.78751        1.01387
H         -0.89634        3.89013        0.98522
H         -1.53951        2.78076        3.05656
H         -0.02594        1.81481        3.20316
H         -0.46661        2.98202        4.45025
H          3.95356        3.52856        1.35435

--Link1--
%chk=JID_5150.chk
%mem=8GB
%nprocshared=4
# B3LYP/6-311++G(d,p) empiricaldispersion=gd3bj scf=xqc pop=npa geom=check

CID_84120621_JID_5150_Energie_neutraal

0 1

--Link1--
%chk=JID_5150.chk
%mem=8GB
%nprocshared=4
# B3LYP/6-311++G(d,p) empiricaldispersion=gd3bj scf=xqc pop=npa geom=check

CID_84120621_JID_5150_Energie_kation

1 2

--Link1--
%chk=JID_5150.chk
%mem=8GB
%nprocshared=4
# B3LYP/6-311++G(d,p) empiricaldispersion=gd3bj scf=xqc pop=npa geom=check

CID_84120621_JID_5150_Energie_anion

-1 2
