%chk=JID_6029.chk
%mem=8GB
%nprocshared=4
# opt freq B3LYP/6-31G(d) empiricaldispersion=gd3bj scf=xqc

CID_144988228_JID_6029_neutraal

0 1
C          2.50100       -0.11500        0.00200
C          0.98445        0.16549        0.22987
C          0.13718       -0.76364       -1.03368
N         -1.53584       -0.69499       -1.21254
C         -2.51125        0.22777       -0.15738
C         -1.96938        1.22575        1.13952
C         -0.22105        1.27444        1.42338
C         -4.01108        0.11543       -0.34674
C         -4.38346       -0.24864       -1.78258
C         -4.58253       -0.90392        0.63490
C          1.87341        1.98580        1.35938
C          0.88831        2.35299       -0.06465
C         -0.43038        1.24650       -0.45138
N         -0.71123       -0.31622        0.70538
C          0.35147       -0.58840        2.09404
C          1.61576        0.56402        2.41159
H          3.07117       -0.39780        0.88998
H          2.60132       -0.98531       -0.65793
H          2.99078        0.70950       -0.52629
H          0.63088       -1.40456       -1.75270
H         -2.65444        1.76480        1.77843
H         -0.02398        1.94959        2.27299
H         -4.44542        1.09906       -0.13049
H         -4.02933       -1.24974       -2.05322
H         -5.47104       -0.23645       -1.91292
H         -3.95246        0.46396       -2.49445
H         -4.37107       -0.61688        1.67105
H         -5.66978       -0.98022        0.52686
H         -4.15440       -1.89984        0.47406
H          2.68778        2.66507        1.61114
H          1.08649        3.22035       -0.68224
H         -1.04617        1.40355       -1.34220
H          0.11119       -1.47617        2.66221
H          2.26984        0.41659        3.26723

--Link1--
%chk=JID_6029.chk
%mem=8GB
%nprocshared=4
# B3LYP/6-311++G(d,p) empiricaldispersion=gd3bj scf=xqc pop=npa geom=check

CID_144988228_JID_6029_Energie_neutraal

0 1

--Link1--
%chk=JID_6029.chk
%mem=8GB
%nprocshared=4
# B3LYP/6-311++G(d,p) empiricaldispersion=gd3bj scf=xqc pop=npa geom=check

CID_144988228_JID_6029_Energie_kation

1 2

--Link1--
%chk=JID_6029.chk
%mem=8GB
%nprocshared=4
# B3LYP/6-311++G(d,p) empiricaldispersion=gd3bj scf=xqc pop=npa geom=check

CID_144988228_JID_6029_Energie_anion

-1 2
