%chk=JID_3615.chk
%mem=8GB
%nprocshared=4
# opt freq B3LYP/6-31G(d) empiricaldispersion=gd3bj scf=xqc

CID_129973065_JID_3615_neutraal

0 1
C          1.06207       -0.03548       -0.06992
C          1.18062       -0.27726       -1.53651
C          2.10119        0.26921       -2.36200
C          1.78490       -0.15368       -3.75644
C          1.03066       -1.46202       -3.49437
N          0.32312       -1.15134       -2.24053
C         -0.43490       -2.21718       -1.60780
C          0.36548       -1.82980       -4.81100
N          1.31718       -1.65212       -5.91160
C          2.53015       -1.01794       -5.84825
O          3.28661       -0.98496       -6.81013
N          2.85423       -0.42049       -4.65714
S         -1.18322       -0.97199       -5.23402
H          1.21677       -0.96426        0.48800
H          0.06991        0.35753        0.17335
H          1.80424        0.69101        0.27706
H          2.85824        0.98232       -2.07742
H          1.16484        0.63254       -4.20675
H          1.75848       -2.26214       -3.27027
H          0.23508       -2.97016       -1.17966
H         -1.07114       -1.81872       -0.81104
H         -1.08853       -2.71021       -2.33417
H          0.11314       -2.89556       -4.79281
H          1.09534       -2.05806       -6.81100
H          3.66814        0.17887       -4.69203
H         -0.67764        0.26714       -5.26616

--Link1--
%chk=JID_3615.chk
%mem=8GB
%nprocshared=4
# B3LYP/6-311++G(d,p) empiricaldispersion=gd3bj scf=xqc pop=npa geom=check

CID_129973065_JID_3615_Energie_neutraal

0 1

--Link1--
%chk=JID_3615.chk
%mem=8GB
%nprocshared=4
# B3LYP/6-311++G(d,p) empiricaldispersion=gd3bj scf=xqc pop=npa geom=check

CID_129973065_JID_3615_Energie_kation

1 2

--Link1--
%chk=JID_3615.chk
%mem=8GB
%nprocshared=4
# B3LYP/6-311++G(d,p) empiricaldispersion=gd3bj scf=xqc pop=npa geom=check

CID_129973065_JID_3615_Energie_anion

-1 2
