%chk=JID_3002.chk
%mem=8GB
%nprocshared=4
# opt freq B3LYP/6-31G(d) empiricaldispersion=gd3bj scf=xqc

CID_131010823_JID_3002_neutraal

0 1
C         -1.16600        0.68800        0.17100
C         -1.20588       -0.70219        0.18649
C         -0.01912       -1.42765        0.24395
C          1.22388       -0.77362        0.30264
C          1.27744        0.63916        0.29494
C          0.06659        1.35649        0.20568
C         -0.00506        2.82843        0.15255
O         -0.70608        3.53195        0.85321
O          0.68877        3.31223       -0.89114
S          2.85402        1.49170        0.47164
C          2.41968       -1.56217        0.36837
N          3.34457       -2.26194        0.40349
O         -0.17034       -2.78935        0.24461
H         -2.09635        1.25225        0.12384
H         -2.16134       -1.22144        0.15170
H          0.53173        4.27964       -0.86037
H          3.33368        1.18009       -0.74289
H          0.68453       -3.25226        0.30694

--Link1--
%chk=JID_3002.chk
%mem=8GB
%nprocshared=4
# B3LYP/6-311++G(d,p) empiricaldispersion=gd3bj scf=xqc pop=npa geom=check

CID_131010823_JID_3002_Energie_neutraal

0 1

--Link1--
%chk=JID_3002.chk
%mem=8GB
%nprocshared=4
# B3LYP/6-311++G(d,p) empiricaldispersion=gd3bj scf=xqc pop=npa geom=check

CID_131010823_JID_3002_Energie_kation

1 2

--Link1--
%chk=JID_3002.chk
%mem=8GB
%nprocshared=4
# B3LYP/6-311++G(d,p) empiricaldispersion=gd3bj scf=xqc pop=npa geom=check

CID_131010823_JID_3002_Energie_anion

-1 2
