%chk=JID_8628.chk
%mem=8GB
%nprocshared=4
# opt freq B3LYP/6-31G(d) empiricaldispersion=gd3bj scf=xqc

CID_61061717_JID_8628_neutraal

0 1
C          1.09871       -0.01062        0.01201
C          1.24843        1.26338        0.81652
S          2.33990        2.47273        0.06292
O          2.45742        2.21916       -1.35498
O          1.91753        3.77281        0.54506
N          3.80481        2.20263        0.82570
C          4.57990        1.01720        0.69457
C          5.34327        0.62283        1.79419
C          6.18557       -0.49438        1.71610
C          6.23175       -1.27695        0.55707
C          5.53426       -0.82020       -0.56724
C          4.72318        0.32111       -0.50213
N          6.97692       -2.45763        0.38959
C          7.37393       -3.42226        1.26824
O          8.18181       -4.26972        0.87636
C          6.77895       -3.52582        2.64526
O          6.97919       -0.72334        2.80959
C          8.30195       -0.22796        2.57765
H          0.71467        0.19718       -0.99163
H          0.39553       -0.68766        0.50716
H          2.05038       -0.53614       -0.09251
H          0.27106        1.75042        0.90534
H          1.60626        1.06560        1.83139
H          3.90240        2.74902        1.68140
H          5.31962        1.19237        2.71945
H          5.58868       -1.35922       -1.51117
H          4.22029        0.64142       -1.41010
H          7.24795       -2.69594       -0.55786
H          7.46739       -3.10741        3.38233
H          5.79767       -3.05221        2.70856
H          6.63073       -4.58585        2.87751
H          8.81712       -0.80945        1.80649
H          8.28833        0.83390        2.30720
H          8.86466       -0.33240        3.51011

--Link1--
%chk=JID_8628.chk
%mem=8GB
%nprocshared=4
# B3LYP/6-311++G(d,p) empiricaldispersion=gd3bj scf=xqc pop=npa geom=check

CID_61061717_JID_8628_Energie_neutraal

0 1

--Link1--
%chk=JID_8628.chk
%mem=8GB
%nprocshared=4
# B3LYP/6-311++G(d,p) empiricaldispersion=gd3bj scf=xqc pop=npa geom=check

CID_61061717_JID_8628_Energie_kation

1 2

--Link1--
%chk=JID_8628.chk
%mem=8GB
%nprocshared=4
# B3LYP/6-311++G(d,p) empiricaldispersion=gd3bj scf=xqc pop=npa geom=check

CID_61061717_JID_8628_Energie_anion

-1 2
