%chk=JID_1050.chk
%mem=8GB
%nprocshared=4
# opt freq B3LYP/6-31G(d) empiricaldispersion=gd3bj scf=xqc

CID_117623527_JID_1050_neutraal

0 1
C          0.91746       -0.05637       -0.00296
C          0.47155       -0.70635        1.26912
N          0.00593        0.08950        2.25064
C         -0.37395       -0.52670        3.38997
C         -0.29893       -1.88897        3.59119
C         -0.71616       -2.54132        4.83036
C         -0.39369       -3.82566        5.04342
C          0.37310       -4.64158        4.03842
C          0.24286       -4.12054        2.60163
C          0.20316       -2.61575        2.52099
N          0.58927       -2.04572        1.35589
H          0.51727        0.95887       -0.08411
H          0.56892       -0.63256       -0.86542
H          2.00984       -0.00595       -0.02841
H         -0.74928        0.13989        4.16093
H         -1.25205       -1.96216        5.57529
H         -0.66502       -4.30407        5.98090
H          0.02930       -5.68193        4.07020
H          1.42804       -4.64692        4.33978
H         -0.68812       -4.49983        2.16119
H          1.06942       -4.50908        1.99545

--Link1--
%chk=JID_1050.chk
%mem=8GB
%nprocshared=4
# B3LYP/6-311++G(d,p) empiricaldispersion=gd3bj scf=xqc pop=npa geom=check

CID_117623527_JID_1050_Energie_neutraal

0 1

--Link1--
%chk=JID_1050.chk
%mem=8GB
%nprocshared=4
# B3LYP/6-311++G(d,p) empiricaldispersion=gd3bj scf=xqc pop=npa geom=check

CID_117623527_JID_1050_Energie_kation

1 2

--Link1--
%chk=JID_1050.chk
%mem=8GB
%nprocshared=4
# B3LYP/6-311++G(d,p) empiricaldispersion=gd3bj scf=xqc pop=npa geom=check

CID_117623527_JID_1050_Energie_anion

-1 2
