%chk=JID_10861.chk
%mem=8GB
%nprocshared=4
# opt freq B3LYP/6-31G(d) empiricaldispersion=gd3bj scf=xqc

CID_106421285_JID_10861_neutraal

0 1
C         -1.43100        0.32400       -0.23100
C         -1.03662       -1.11522        0.06713
C          0.42457       -1.37654       -0.29422
C          1.40629       -0.40981        0.41540
C          0.96640        1.05001        0.14828
C         -0.50736        1.31399        0.46701
C          2.82500       -0.65705       -0.14895
N          3.87740        0.07536        0.54965
C          5.19942       -0.19609        0.50683
O          6.00218        0.73438        0.47457
N          5.65148       -1.46253        0.50515
C          5.06557       -2.61205        1.16314
C          5.06500       -3.77116        0.24100
C          5.40602       -5.09679        0.37409
C          5.14471       -5.64767       -0.89285
N          4.67120       -4.73909       -1.74710
O          4.61779       -3.55595       -1.02974
C          1.45792       -0.77618        1.89654
O          1.55023       -1.90802        2.35175
O          1.44000        0.27435        2.73672
H         -2.46545        0.49785        0.08608
H         -1.39719        0.49508       -1.31408
H         -1.20556       -1.33259        1.12856
H         -1.68074       -1.79617       -0.50086
H          0.53813       -1.27817       -1.38228
H          0.66423       -2.42025       -0.05378
H          1.13015        1.28498       -0.91236
H          1.58047        1.76052        0.71427
H         -0.76741        2.33349        0.15904
H         -0.67309        1.26407        1.54909
H          3.04411       -1.72372       -0.15395
H          2.87869       -0.34276       -1.19921
H          3.76580        1.08307        0.53626
H          6.65891       -1.48399        0.42024
H          5.70056       -2.82866        2.03000
H          4.07010       -2.40039        1.55443
H          5.78216       -5.59294        1.25551
H          5.27279       -6.66551       -1.23323
H          1.52101       -0.12480        3.62791

--Link1--
%chk=JID_10861.chk
%mem=8GB
%nprocshared=4
# B3LYP/6-311++G(d,p) empiricaldispersion=gd3bj scf=xqc pop=npa geom=check

CID_106421285_JID_10861_Energie_neutraal

0 1

--Link1--
%chk=JID_10861.chk
%mem=8GB
%nprocshared=4
# B3LYP/6-311++G(d,p) empiricaldispersion=gd3bj scf=xqc pop=npa geom=check

CID_106421285_JID_10861_Energie_kation

1 2

--Link1--
%chk=JID_10861.chk
%mem=8GB
%nprocshared=4
# B3LYP/6-311++G(d,p) empiricaldispersion=gd3bj scf=xqc pop=npa geom=check

CID_106421285_JID_10861_Energie_anion

-1 2
