%chk=JID_5888.chk
%mem=8GB
%nprocshared=4
# opt freq B3LYP/6-31G(d) empiricaldispersion=gd3bj scf=xqc

CID_143256709_JID_5888_neutraal

0 1
C          0.93333       -0.05417        0.05120
C          0.11134       -1.28080        0.37653
C          3.00271       -2.89474       -2.19092
C          2.22479       -1.98860       -3.11826
C          4.04274        3.15085       -0.47209
C          3.01648        3.81097        0.40237
C          1.69645        3.70825        0.18655
C          3.52808        4.61118        1.49685
C          3.78243        4.24682        2.76688
C          4.33526        5.35472        3.62492
N          4.75194        5.25011        4.85050
C          4.67847        4.00329        5.42122
C          4.17921        2.90459        4.83546
C          3.65972        2.96719        3.47143
C          3.10565        1.85010        2.97086
H          0.60058        0.79577        0.65356
H          0.83017        0.21038       -1.00526
H          1.99221       -0.23313        0.25986
H          0.21120       -1.54015        1.43472
H         -0.94684       -1.10101        0.16447
H          0.44096       -2.13633       -0.21986
H          2.60463       -3.91324       -2.22575
H          2.94017       -2.53568       -1.15948
H          4.05727       -2.92681       -2.48039
H          2.29692       -2.34243       -4.15100
H          1.16804       -1.96484       -2.83621
H          2.61579       -0.96768       -3.07529
H          3.57856        2.57884       -1.28276
H          4.65830        2.45655        0.11011
H          4.70078        3.89888       -0.92701
H          0.97216        4.20290        0.82752
H          1.30276        3.12469       -0.63999
H          3.74535        5.63199        1.17907
H          4.39056        6.35340        3.15881
H          5.06339        3.93904        6.43639
H          4.16452        1.96427        5.37652
H          3.04468        0.93340        3.55043
H          2.68303        1.79076        1.97811

--Link1--
%chk=JID_5888.chk
%mem=8GB
%nprocshared=4
# B3LYP/6-311++G(d,p) empiricaldispersion=gd3bj scf=xqc pop=npa geom=check

CID_143256709_JID_5888_Energie_neutraal

0 1

--Link1--
%chk=JID_5888.chk
%mem=8GB
%nprocshared=4
# B3LYP/6-311++G(d,p) empiricaldispersion=gd3bj scf=xqc pop=npa geom=check

CID_143256709_JID_5888_Energie_kation

1 2

--Link1--
%chk=JID_5888.chk
%mem=8GB
%nprocshared=4
# B3LYP/6-311++G(d,p) empiricaldispersion=gd3bj scf=xqc pop=npa geom=check

CID_143256709_JID_5888_Energie_anion

-1 2
