%chk=JID_10829.chk
%mem=8GB
%nprocshared=4
# opt freq B3LYP/6-31G(d) empiricaldispersion=gd3bj scf=xqc

CID_43398898_JID_10829_neutraal

0 1
C          0.92280        0.04849       -0.04110
C          0.83108        1.37526        0.69234
N          1.22679        2.47298       -0.16849
C          0.42558        3.34631       -0.85199
O          0.92884        4.05887       -1.71892
C         -1.06403        3.43260       -0.50849
N         -1.79959        2.35154       -1.17784
C         -3.19412        2.27101       -0.75078
C         -4.12476        3.23464       -1.44788
C         -4.25264        4.55912       -1.01887
C         -5.12668        5.45129       -1.65708
C         -5.95385        5.01336       -2.70851
C         -5.85430        3.67082       -3.11571
C         -4.91469        2.81035       -2.52273
O         -6.66219        3.18680       -4.11499
C         -7.43772        2.06256       -3.69777
O         -6.87331        5.91738       -3.17546
C         -7.32794        5.77530       -4.51419
O         -5.11357        6.71205       -1.10945
C         -5.20670        7.78467       -2.04271
H          0.26212        0.03463       -0.91397
H          0.63712       -0.77521        0.62006
H          1.94358       -0.13288       -0.39398
H         -0.18043        1.52146        1.07701
H          1.51945        1.37411        1.54357
H          2.18802        2.49772       -0.48612
H         -1.18027        3.39734        0.57991
H         -1.41296        4.41524       -0.84281
H         -1.75465        2.49951       -2.18736
H         -3.53793        1.24944       -0.95713
H         -3.28838        2.38018        0.33724
H         -3.66522        4.92083       -0.17779
H         -4.81872        1.78957       -2.88512
H         -6.87054        1.13755       -3.84036
H         -7.77504        2.15134       -2.65845
H         -8.32563        2.01434       -4.33551
H         -6.52088        5.50394       -5.20257
H         -8.16053        5.06742       -4.56290
H         -7.71493        6.74816       -4.83422
H         -4.74068        7.55180       -3.00691
H         -6.25084        8.08483       -2.17054
H         -4.67124        8.64000       -1.61847

--Link1--
%chk=JID_10829.chk
%mem=8GB
%nprocshared=4
# B3LYP/6-311++G(d,p) empiricaldispersion=gd3bj scf=xqc pop=npa geom=check

CID_43398898_JID_10829_Energie_neutraal

0 1

--Link1--
%chk=JID_10829.chk
%mem=8GB
%nprocshared=4
# B3LYP/6-311++G(d,p) empiricaldispersion=gd3bj scf=xqc pop=npa geom=check

CID_43398898_JID_10829_Energie_kation

1 2

--Link1--
%chk=JID_10829.chk
%mem=8GB
%nprocshared=4
# B3LYP/6-311++G(d,p) empiricaldispersion=gd3bj scf=xqc pop=npa geom=check

CID_43398898_JID_10829_Energie_anion

-1 2
