%chk=JID_3332.chk
%mem=8GB
%nprocshared=4
# opt freq B3LYP/6-31G(d) empiricaldispersion=gd3bj scf=xqc

CID_104366822_JID_3332_neutraal

0 1
C          1.07345        0.03583        0.05763
C          1.09494       -1.42740        0.47352
N          1.61578       -1.58649        1.83845
C          0.62711       -1.46391        2.91378
C          0.12423       -2.82930        3.28542
C          0.02987       -3.29464        4.53884
C          2.95015       -1.79352        2.08877
C          3.95910       -1.66697        1.15496
S          5.51060       -2.00655        1.79079
C          4.86556       -2.34633        3.33058
C          3.49441       -2.18093        3.35485
C          5.72682       -2.75618        4.41674
O          6.94840       -2.88628        4.37588
H          0.43860        0.62814        0.72450
H          0.68069        0.13380       -0.95923
H          2.07619        0.47384        0.07809
H          0.07499       -1.82780        0.41543
H          1.67652       -2.01629       -0.24556
H          1.04521       -0.93098        3.77655
H         -0.22683       -0.86290        2.57760
H         -0.18119       -3.47260        2.46401
H         -0.34303       -4.29648        4.72962
H          0.31744       -2.69381        5.39566
H          3.88313       -1.38063        0.11691
H          2.90863       -2.35779        4.24670
H          5.19849       -2.96637        5.36314

--Link1--
%chk=JID_3332.chk
%mem=8GB
%nprocshared=4
# B3LYP/6-311++G(d,p) empiricaldispersion=gd3bj scf=xqc pop=npa geom=check

CID_104366822_JID_3332_Energie_neutraal

0 1

--Link1--
%chk=JID_3332.chk
%mem=8GB
%nprocshared=4
# B3LYP/6-311++G(d,p) empiricaldispersion=gd3bj scf=xqc pop=npa geom=check

CID_104366822_JID_3332_Energie_kation

1 2

--Link1--
%chk=JID_3332.chk
%mem=8GB
%nprocshared=4
# B3LYP/6-311++G(d,p) empiricaldispersion=gd3bj scf=xqc pop=npa geom=check

CID_104366822_JID_3332_Energie_anion

-1 2
