%chk=JID_2668.chk
%mem=8GB
%nprocshared=4
# opt freq B3LYP/6-31G(d) empiricaldispersion=gd3bj scf=xqc

CID_65984333_JID_2668_neutraal

0 1
C          1.26600       -0.09700        0.26800
C          0.64802        1.15042       -0.33361
C         -0.85576        0.89184       -0.31656
C         -1.04526       -0.63045       -0.12162
C          0.36524       -1.20785       -0.24994
C         -2.09846       -1.18796       -1.10225
N         -2.60415       -2.55695       -1.04296
C         -1.63967       -3.62256       -1.35944
C         -2.37413       -4.48961       -0.29892
C         -2.78829       -3.11933        0.30560
C         -1.50172       -5.38915        0.54757
O         -2.29290       -6.02567        1.54529
H          1.22512       -0.05296        1.36271
H          2.30888       -0.23198       -0.03236
H          0.91978        2.05672        0.21546
H          0.98765        1.27234       -1.36919
H         -1.31638        1.26604       -1.23737
H         -1.32380        1.42843        0.51749
H         -1.39371       -0.77122        0.90907
H          0.60886       -1.42258       -1.29721
H          0.49395       -2.12360        0.33449
H         -2.98665       -0.54963       -0.99873
H         -1.74688       -1.01053       -2.12771
H         -1.70060       -4.00099       -2.38451
H         -0.59036       -3.43117       -1.12777
H         -3.22475       -5.03668       -0.73253
H         -2.10875       -2.76998        1.08914
H         -3.81367       -3.07176        0.68406
H         -1.05176       -6.17489       -0.06689
H         -0.69256       -4.84103        1.04106
H         -2.66578       -5.33487        2.11835

--Link1--
%chk=JID_2668.chk
%mem=8GB
%nprocshared=4
# B3LYP/6-311++G(d,p) empiricaldispersion=gd3bj scf=xqc pop=npa geom=check

CID_65984333_JID_2668_Energie_neutraal

0 1

--Link1--
%chk=JID_2668.chk
%mem=8GB
%nprocshared=4
# B3LYP/6-311++G(d,p) empiricaldispersion=gd3bj scf=xqc pop=npa geom=check

CID_65984333_JID_2668_Energie_kation

1 2

--Link1--
%chk=JID_2668.chk
%mem=8GB
%nprocshared=4
# B3LYP/6-311++G(d,p) empiricaldispersion=gd3bj scf=xqc pop=npa geom=check

CID_65984333_JID_2668_Energie_anion

-1 2
