%chk=JID_3158.chk
%mem=8GB
%nprocshared=4
# opt freq B3LYP/6-31G(d) empiricaldispersion=gd3bj scf=xqc

CID_144153653_JID_3158_neutraal

0 1
C          1.07741       -0.03977       -0.04926
C          0.77524        0.99988        1.00589
C         -1.90978        2.30192       -1.81684
C         -1.86556        2.20247       -3.33326
N         -0.68195        1.49856       -3.81915
C          0.49330        2.26281       -4.22856
C          1.04712        1.63837       -5.50892
C          1.40533        0.16496       -5.34414
C          0.62094       -0.55066       -4.24939
C         -0.68604        0.11117       -3.85546
O         -1.66002       -0.56698       -3.53362
S          1.68796        2.37373       -2.84836
C          3.02962        3.28502       -3.64374
H          0.33298       -0.00458       -0.84908
H          1.06117       -1.04310        0.38704
H          2.06720        0.12645       -0.48368
H          0.78728        2.00436        0.57303
H         -0.21190        0.82594        1.44444
H          1.51938        0.96102        1.80703
H         -1.87782        1.31108       -1.35255
H         -2.83283        2.79607       -1.49776
H         -1.06621        2.88131       -1.43111
H         -2.75580        1.66161       -3.67546
H         -1.90748        3.19917       -3.78496
H          0.17257        3.28472       -4.45932
H          1.90032        2.19666       -5.90827
H          0.26871        1.70786       -6.28221
H          2.47670        0.06600       -5.12950
H          1.24951       -0.34416       -6.30337
H          1.22971       -0.63586       -3.34165
H          0.40592       -1.57471       -4.57663
H          3.56662        2.64111       -4.34454
H          2.64824        4.16822       -4.16158
H          3.73804        3.61142       -2.87730

--Link1--
%chk=JID_3158.chk
%mem=8GB
%nprocshared=4
# B3LYP/6-311++G(d,p) empiricaldispersion=gd3bj scf=xqc pop=npa geom=check

CID_144153653_JID_3158_Energie_neutraal

0 1

--Link1--
%chk=JID_3158.chk
%mem=8GB
%nprocshared=4
# B3LYP/6-311++G(d,p) empiricaldispersion=gd3bj scf=xqc pop=npa geom=check

CID_144153653_JID_3158_Energie_kation

1 2

--Link1--
%chk=JID_3158.chk
%mem=8GB
%nprocshared=4
# B3LYP/6-311++G(d,p) empiricaldispersion=gd3bj scf=xqc pop=npa geom=check

CID_144153653_JID_3158_Energie_anion

-1 2
