%chk=JID_10229.chk
%mem=8GB
%nprocshared=4
# opt freq B3LYP/6-31G(d) empiricaldispersion=gd3bj scf=xqc

CID_103005567_JID_10229_neutraal

0 1
C          1.00141       -0.09399       -0.03412
N          0.24381        0.43637       -1.15793
C         -1.20361        0.37431       -0.95267
C         -1.63349        1.39325        0.05230
C         -1.72195        2.76194       -0.14932
N         -2.10836        3.34978        1.02781
C         -2.30597        2.38980        1.98553
C         -2.03082        1.15317        1.40671
C         -2.17179        0.01654        2.22260
C         -2.57626        0.20777        3.54320
C         -2.81076        1.49930        3.99321
N         -2.68389        2.62684        3.25861
C         -2.27266        4.77692        1.23950
C         -1.01327        5.45024        1.79265
C          0.05913        5.60073        0.75788
C          0.18312        6.53298       -0.25412
C          1.36608        6.19025       -0.92653
N          1.96125        5.12609       -0.38934
N          1.15845        4.78376        0.63871
C          1.55265        3.67017        1.46976
H          0.71782       -1.12882        0.18350
H          0.88217        0.50838        0.87117
H          2.06624       -0.09508       -0.28780
H          0.51385        1.40519       -1.32886
H         -1.69724        0.58806       -1.90820
H         -1.51642       -0.63607       -0.66597
H         -1.51218        3.35923       -1.02851
H         -1.97362       -0.97928        1.84056
H         -2.70463       -0.63817        4.20975
H         -3.12597        1.66641        5.02085
H         -2.58377        5.22012        0.28584
H         -3.10527        4.90774        1.94055
H         -1.28616        6.45561        2.13883
H         -0.63972        4.91890        2.67500
H         -0.49153        7.34718       -0.47766
H          1.82001        6.67013       -1.78388
H          2.05314        2.92445        0.84597
H          2.23784        4.04597        2.23329
H          0.67766        3.21766        1.93523

--Link1--
%chk=JID_10229.chk
%mem=8GB
%nprocshared=4
# B3LYP/6-311++G(d,p) empiricaldispersion=gd3bj scf=xqc pop=npa geom=check

CID_103005567_JID_10229_Energie_neutraal

0 1

--Link1--
%chk=JID_10229.chk
%mem=8GB
%nprocshared=4
# B3LYP/6-311++G(d,p) empiricaldispersion=gd3bj scf=xqc pop=npa geom=check

CID_103005567_JID_10229_Energie_kation

1 2

--Link1--
%chk=JID_10229.chk
%mem=8GB
%nprocshared=4
# B3LYP/6-311++G(d,p) empiricaldispersion=gd3bj scf=xqc pop=npa geom=check

CID_103005567_JID_10229_Energie_anion

-1 2
