%chk=JID_6851.chk
%mem=8GB
%nprocshared=4
# opt freq B3LYP/6-31G(d) empiricaldispersion=gd3bj scf=xqc

CID_63630057_JID_6851_neutraal

0 1
C         -2.52600       -0.02400        0.00000
C         -1.06411       -0.16110       -0.24315
C         -0.32658        0.79504       -0.90276
N          1.00115        0.70725       -1.11172
C          1.62273       -0.37958       -0.63458
N          1.00297       -1.35525        0.04254
C         -0.32542       -1.22260        0.22746
N          2.98128       -0.56334       -0.82826
C          3.80839        0.62851       -0.88984
C          4.09147        1.22482        0.49536
C          5.44208        0.78400        1.11266
C          5.55123       -0.72395        1.38474
C          4.67114       -1.14881        2.55779
C          4.94619       -0.29109        3.79190
N          4.81653        1.13743        3.50213
C          5.71638        1.54814        2.42297
H         -2.70419        0.51736        0.93432
H         -3.00911        0.51882       -0.81938
H         -3.00555       -1.00634        0.06596
H         -0.78917        1.69312       -1.30221
H         -0.78778       -2.03214        0.78523
H          3.26473       -1.27998       -0.17208
H          4.75152        0.36575       -1.38293
H          3.35008        1.38882       -1.53454
H          4.13520        2.31561        0.37291
H          3.26159        1.03290        1.18491
H          6.23276        1.05479        0.40007
H          5.31648       -1.31361        0.49427
H          6.59545       -0.95934        1.63108
H          3.61315       -1.07177        2.28098
H          4.85925       -2.20230        2.79440
H          4.23520       -0.55903        4.58101
H          5.94961       -0.50327        4.18126
H          5.03275        1.67125        4.34351
H          6.75821        1.39447        2.73244
H          5.59832        2.62483        2.25524

--Link1--
%chk=JID_6851.chk
%mem=8GB
%nprocshared=4
# B3LYP/6-311++G(d,p) empiricaldispersion=gd3bj scf=xqc pop=npa geom=check

CID_63630057_JID_6851_Energie_neutraal

0 1

--Link1--
%chk=JID_6851.chk
%mem=8GB
%nprocshared=4
# B3LYP/6-311++G(d,p) empiricaldispersion=gd3bj scf=xqc pop=npa geom=check

CID_63630057_JID_6851_Energie_kation

1 2

--Link1--
%chk=JID_6851.chk
%mem=8GB
%nprocshared=4
# B3LYP/6-311++G(d,p) empiricaldispersion=gd3bj scf=xqc pop=npa geom=check

CID_63630057_JID_6851_Energie_anion

-1 2
