%chk=JID_9912.chk
%mem=8GB
%nprocshared=4
# opt freq B3LYP/6-31G(d) empiricaldispersion=gd3bj scf=xqc

CID_113794350_JID_9912_neutraal

0 1
C          2.49600       -0.00700       -0.12600
C          1.02844        0.00732        0.29757
C          0.31003        1.23254       -0.27792
C         -1.16732        1.24059        0.10071
C         -1.86227       -0.05034       -0.32166
C         -1.16025       -1.29504        0.24920
C          0.33009       -1.29203       -0.13033
C         -1.89296       -2.56721       -0.22997
C         -1.29774       -3.90411        0.23427
N         -1.26878       -4.00632        1.69234
C         -0.70227       -5.27362        2.16219
C          0.76192       -5.37727        1.94031
C          1.56723       -6.25118        1.25335
C          2.88645       -5.76160        1.45104
N          2.86552       -4.65641        2.21483
O          1.53879       -4.42526        2.52300
C          4.13352       -6.31410        0.94063
O          5.26030       -5.86888        1.11236
O          3.97792       -7.44361        0.20345
H          2.59609       -0.07102       -1.21483
H          3.00535        0.90303        0.20805
H          3.01859       -0.86348        0.31301
H          0.99633        0.07058        1.39359
H          0.78259        2.15109        0.08990
H          0.40375        1.24265       -1.37140
H         -1.66317        2.09650       -0.37101
H         -1.26700        1.37188        1.18518
H         -1.88418       -0.10458       -1.41773
H         -2.90543       -0.02289        0.01549
H         -1.23502       -1.23998        1.34318
H          0.43338       -1.43050       -1.21459
H          0.84217       -2.13469        0.34805
H         -2.93969       -2.51578        0.09869
H         -1.91876       -2.57481       -1.32765
H         -1.92123       -4.70962       -0.17258
H         -0.29835       -4.02552       -0.19694
H         -0.71141       -3.24577        2.08293
H         -0.89413       -5.35144        3.23877
H         -1.22419       -6.11873        1.69790
H          1.26167       -7.11818        0.68655
H          4.90113       -7.66383       -0.04217

--Link1--
%chk=JID_9912.chk
%mem=8GB
%nprocshared=4
# B3LYP/6-311++G(d,p) empiricaldispersion=gd3bj scf=xqc pop=npa geom=check

CID_113794350_JID_9912_Energie_neutraal

0 1

--Link1--
%chk=JID_9912.chk
%mem=8GB
%nprocshared=4
# B3LYP/6-311++G(d,p) empiricaldispersion=gd3bj scf=xqc pop=npa geom=check

CID_113794350_JID_9912_Energie_kation

1 2

--Link1--
%chk=JID_9912.chk
%mem=8GB
%nprocshared=4
# B3LYP/6-311++G(d,p) empiricaldispersion=gd3bj scf=xqc pop=npa geom=check

CID_113794350_JID_9912_Energie_anion

-1 2
