%chk=JID_7536.chk
%mem=8GB
%nprocshared=4
# opt freq B3LYP/6-31G(d) empiricaldispersion=gd3bj scf=xqc

CID_79821818_JID_7536_neutraal

0 1
C          1.06883        0.06669       -0.02857
N          0.48633       -0.45369        1.19445
C         -0.33393        0.44036        1.89337
N         -0.02333        0.59393        3.19156
C         -0.82736        1.42680        3.88354
C         -1.90293        2.09454        3.32040
C         -2.23988        1.94637        1.98243
C         -1.41432        1.07470        1.26985
N         -2.43519        2.81332        4.35623
C         -1.69659        2.55470        5.48879
N         -0.70779        1.72505        5.21321
C         -1.98545        3.12909        6.85086
C         -3.33968        2.68427        7.41575
C         -4.50936        3.53975        6.93605
N         -4.25398        4.96151        7.13682
C         -3.05041        5.41918        6.45202
C         -1.81459        4.65074        6.91216
H          1.48428        1.07102        0.11057
H          0.33413        0.08625       -0.83979
H          1.88552       -0.59041       -0.34443
H          1.19503       -0.72196        1.87896
H         -3.08309        2.44709        1.52463
H         -1.63072        0.87628        0.22492
H         -3.24167        3.41438        4.29548
H         -1.21464        2.69910        7.50766
H         -3.53437        1.62984        7.18422
H         -3.29371        2.75684        8.51120
H         -4.73927        3.33976        5.88455
H         -5.40453        3.26133        7.50375
H         -5.05973        5.50860        6.83333
H         -2.90529        6.48270        6.67334
H         -3.17864        5.34571        5.36719
H         -1.61051        4.93001        7.95518
H         -0.94195        4.97162        6.33021

--Link1--
%chk=JID_7536.chk
%mem=8GB
%nprocshared=4
# B3LYP/6-311++G(d,p) empiricaldispersion=gd3bj scf=xqc pop=npa geom=check

CID_79821818_JID_7536_Energie_neutraal

0 1

--Link1--
%chk=JID_7536.chk
%mem=8GB
%nprocshared=4
# B3LYP/6-311++G(d,p) empiricaldispersion=gd3bj scf=xqc pop=npa geom=check

CID_79821818_JID_7536_Energie_kation

1 2

--Link1--
%chk=JID_7536.chk
%mem=8GB
%nprocshared=4
# B3LYP/6-311++G(d,p) empiricaldispersion=gd3bj scf=xqc pop=npa geom=check

CID_79821818_JID_7536_Energie_anion

-1 2
