%chk=JID_4588.chk
%mem=8GB
%nprocshared=4
# opt freq B3LYP/6-31G(d) empiricaldispersion=gd3bj scf=xqc

CID_54539728_JID_4588_neutraal

0 1
C          0.63700       -1.19200       -0.48900
C          1.42747        0.08970       -0.22312
O          2.64546        0.18063       -0.33735
N          0.65953        1.20545        0.02893
C         -0.72231        1.22649       -0.44892
C         -1.46785       -0.03839        0.05806
O         -2.68647       -0.07740        0.22138
N         -0.65904       -1.17016        0.19395
C         -1.28698       -2.45168        0.51244
C         -1.89963       -3.14585       -0.70764
O         -0.86947       -3.62512       -1.57170
C         -1.47230        2.48766       -0.00302
C         -0.89285        3.78194       -0.55666
O         -0.80758        3.70947       -1.97132
H          0.47497       -1.28950       -1.56681
H          1.22386       -2.03374       -0.10876
H          1.21015        2.05298       -0.01555
H         -0.69673        1.15673       -1.54368
H         -0.52810       -3.08784        0.98133
H         -2.07614       -2.27045        1.25098
H         -2.49074       -4.00801       -0.38339
H         -2.54238       -2.46728       -1.27666
H         -1.31355       -4.05967       -2.32091
H         -2.51312        2.41296       -0.34370
H         -1.50063        2.54515        1.09215
H         -1.54016        4.62354       -0.28903
H          0.10552        3.97798       -0.15448
H         -0.51986        4.58435       -2.28771

--Link1--
%chk=JID_4588.chk
%mem=8GB
%nprocshared=4
# B3LYP/6-311++G(d,p) empiricaldispersion=gd3bj scf=xqc pop=npa geom=check

CID_54539728_JID_4588_Energie_neutraal

0 1

--Link1--
%chk=JID_4588.chk
%mem=8GB
%nprocshared=4
# B3LYP/6-311++G(d,p) empiricaldispersion=gd3bj scf=xqc pop=npa geom=check

CID_54539728_JID_4588_Energie_kation

1 2

--Link1--
%chk=JID_4588.chk
%mem=8GB
%nprocshared=4
# B3LYP/6-311++G(d,p) empiricaldispersion=gd3bj scf=xqc pop=npa geom=check

CID_54539728_JID_4588_Energie_anion

-1 2
