%chk=JID_3267.chk
%mem=8GB
%nprocshared=4
# opt freq B3LYP/6-31G(d) empiricaldispersion=gd3bj scf=xqc

CID_142565743_JID_3267_neutraal

0 1
C          1.07706       -0.01777        0.06121
C          0.99080       -1.50338        0.36537
C          1.39904       -1.80684        1.79673
C         -3.08207       -0.43862       -0.54054
N         -2.95248       -1.16332        0.69920
C         -2.55251       -0.69437        1.93810
O         -2.44026       -1.52745        2.84106
C         -2.25621        0.77220        2.18711
N         -1.71336        1.07711        3.38604
C         -1.45198        2.37592        3.61056
C         -1.70876        3.36953        2.69636
C         -2.26247        2.95686        1.50736
N         -2.54658        1.67258        1.22276
H          0.43792        0.56112        0.73406
H          0.75522        0.17856       -0.96624
H          2.10420        0.34479        0.17055
H         -0.03298       -1.85320        0.19619
H          1.63958       -2.05467       -0.32427
H          0.74920       -1.28856        2.50899
H          1.32788       -2.88148        1.99145
H          2.43155       -1.49513        1.98427
H         -2.14587        0.07590       -0.76974
H         -3.90615        0.27431       -0.46172
H         -3.30293       -1.15633       -1.33469
H         -3.10563       -2.16402        0.69111
H         -1.01634        2.60018        4.58024
H         -1.49054        4.40859        2.90058
H         -2.50197        3.67065        0.72396

--Link1--
%chk=JID_3267.chk
%mem=8GB
%nprocshared=4
# B3LYP/6-311++G(d,p) empiricaldispersion=gd3bj scf=xqc pop=npa geom=check

CID_142565743_JID_3267_Energie_neutraal

0 1

--Link1--
%chk=JID_3267.chk
%mem=8GB
%nprocshared=4
# B3LYP/6-311++G(d,p) empiricaldispersion=gd3bj scf=xqc pop=npa geom=check

CID_142565743_JID_3267_Energie_kation

1 2

--Link1--
%chk=JID_3267.chk
%mem=8GB
%nprocshared=4
# B3LYP/6-311++G(d,p) empiricaldispersion=gd3bj scf=xqc pop=npa geom=check

CID_142565743_JID_3267_Energie_anion

-1 2
