%chk=JID_10118.chk
%mem=8GB
%nprocshared=4
# opt freq B3LYP/6-31G(d) empiricaldispersion=gd3bj scf=xqc

CID_61581254_JID_10118_neutraal

0 1
C          0.96853        0.05343       -0.07845
C         -0.29223        0.18801       -0.91869
C         -0.34947       -0.82828       -2.06152
N         -0.42227       -2.22658       -1.64302
C          0.08620       -3.21173       -2.48646
O          0.64606       -3.00541       -3.55951
C         -0.07345       -4.60910       -2.02506
C         -0.72836       -4.89146       -0.89873
C         -1.27753       -3.74409       -0.15684
N         -1.14545       -2.49987       -0.49708
C         -2.04188       -4.08257        1.11424
O         -1.46300       -4.76518        1.95310
N         -3.35099       -3.62354        1.23429
C         -4.04264       -2.87835        0.19220
C         -4.01900       -3.72566        2.53409
C         -4.97299       -4.93065        2.63400
C         -4.27197       -6.21157        3.09950
O         -3.84738       -6.02599        4.45761
C         -3.03138       -7.10505        4.89659
O         -6.01737       -4.61990        3.57085
H          1.01594       -0.91581        0.42677
H          0.99333        0.83266        0.68999
H          1.86462        0.16145       -0.69796
H         -1.17315        0.09598       -0.27313
H         -0.32139        1.19680       -1.34739
H         -1.24000       -0.63936       -2.67279
H          0.51952       -0.69126       -2.71590
H          0.36930       -5.37474       -2.64904
H         -0.86047       -5.89410       -0.51665
H         -5.11444       -3.09119        0.24052
H         -3.87458       -1.81035        0.35769
H         -3.68441       -3.15809       -0.80106
H         -3.26808       -3.76218        3.33211
H         -4.57169       -2.79102        2.69414
H         -5.45587       -5.11039        1.66757
H         -4.98429       -7.04459        3.08511
H         -3.42367       -6.45605        2.45276
H         -3.58023       -8.04966        4.83554
H         -2.11661       -7.15964        4.29861
H         -2.75632       -6.92600        5.93937
H         -5.62449       -4.78857        4.45234

--Link1--
%chk=JID_10118.chk
%mem=8GB
%nprocshared=4
# B3LYP/6-311++G(d,p) empiricaldispersion=gd3bj scf=xqc pop=npa geom=check

CID_61581254_JID_10118_Energie_neutraal

0 1

--Link1--
%chk=JID_10118.chk
%mem=8GB
%nprocshared=4
# B3LYP/6-311++G(d,p) empiricaldispersion=gd3bj scf=xqc pop=npa geom=check

CID_61581254_JID_10118_Energie_kation

1 2

--Link1--
%chk=JID_10118.chk
%mem=8GB
%nprocshared=4
# B3LYP/6-311++G(d,p) empiricaldispersion=gd3bj scf=xqc pop=npa geom=check

CID_61581254_JID_10118_Energie_anion

-1 2
