%chk=JID_8580.chk
%mem=8GB
%nprocshared=4
# opt freq B3LYP/6-31G(d) empiricaldispersion=gd3bj scf=xqc

CID_102981994_JID_8580_neutraal

0 1
C          1.03646       -0.01736        0.09149
C          0.45058        1.38413        0.02575
C          0.93256        2.19685       -1.17935
C          0.57071        1.62697       -2.56328
C         -0.93958        1.54025       -2.80339
O          1.33178        2.31094       -3.58927
C          0.73542        3.39317       -4.18260
C          0.14646        3.30456       -5.45674
C         -0.38227        4.48878       -5.99093
N         -0.33030        5.68286       -5.32878
C          0.27735        5.73787       -4.12557
C          0.83493        4.62062       -3.53031
C          0.34918        7.07309       -3.44907
C         -1.02225        4.57975       -7.34591
C          0.11549        1.99926       -6.20749
N         -0.80873        1.79777       -7.10626
O         -0.65974        0.54211       -7.71949
N          1.05939        1.03738       -5.94460
H          0.66721       -0.64533       -0.72441
H          0.75181       -0.49906        1.03253
H          2.12951        0.01012        0.04237
H         -0.64302        1.32654        0.03821
H          0.74000        1.92178        0.93709
H          0.51655        3.20626       -1.08284
H          2.02167        2.32067       -1.11877
H          0.95121        0.60040       -2.61177
H         -1.41910        2.52112       -2.72010
H         -1.15673        1.15018       -3.80197
H         -1.41763        0.87152       -2.08138
H          1.35091        4.70638       -2.58137
H          1.39300        7.37557       -3.32000
H         -0.15732        7.83961       -4.04441
H         -0.13627        7.02750       -2.46922
H         -1.98305        4.05711       -7.35617
H         -1.22205        5.62548       -7.60664
H         -0.35966        4.18134       -8.12022
H         -1.44398        0.50519       -8.29742
H          1.93040        1.33334       -5.52010
H          1.12814        0.34413       -6.68153

--Link1--
%chk=JID_8580.chk
%mem=8GB
%nprocshared=4
# B3LYP/6-311++G(d,p) empiricaldispersion=gd3bj scf=xqc pop=npa geom=check

CID_102981994_JID_8580_Energie_neutraal

0 1

--Link1--
%chk=JID_8580.chk
%mem=8GB
%nprocshared=4
# B3LYP/6-311++G(d,p) empiricaldispersion=gd3bj scf=xqc pop=npa geom=check

CID_102981994_JID_8580_Energie_kation

1 2

--Link1--
%chk=JID_8580.chk
%mem=8GB
%nprocshared=4
# B3LYP/6-311++G(d,p) empiricaldispersion=gd3bj scf=xqc pop=npa geom=check

CID_102981994_JID_8580_Energie_anion

-1 2
