%chk=JID_4122.chk
%mem=8GB
%nprocshared=4
# opt freq B3LYP/6-31G(d) empiricaldispersion=gd3bj scf=xqc

CID_153901032_JID_4122_neutraal

0 1
C          0.97113       -0.04160       -0.08623
O          0.14059        0.03291       -1.24930
C          0.28463        1.09603       -2.08769
N         -0.50037        1.14743       -3.11023
S         -0.40433        2.41660       -4.16728
N          0.94524        3.27419       -3.73376
C          1.51217        2.95145       -2.52666
N          1.25910        1.98120       -1.71962
C          1.33901        4.51018       -4.43945
C          1.38160        4.38785       -5.97328
C          0.07867        4.72659       -6.69816
C         -0.55145        6.01580       -6.18843
C         -0.75927        5.97966       -4.68038
C          0.55219        5.73293       -3.94147
H          0.69626       -0.94623        0.46346
H          0.79976        0.82017        0.56611
H          2.02484       -0.12070       -0.37064
H          2.30861        3.65446       -2.22802
H          2.38564        4.68907       -4.15215
H          2.14004        5.09517       -6.33726
H          1.72979        3.39334       -6.27729
H         -0.63994        3.90721       -6.60031
H          0.28008        4.82207       -7.77192
H         -1.51298        6.17732       -6.68882
H          0.09030        6.86601       -6.45041
H         -1.49270        5.20826       -4.42316
H         -1.18539        6.93417       -4.34984
H          0.35858        5.66188       -2.86442
H          1.18361        6.62098       -4.08056

--Link1--
%chk=JID_4122.chk
%mem=8GB
%nprocshared=4
# B3LYP/6-311++G(d,p) empiricaldispersion=gd3bj scf=xqc pop=npa geom=check

CID_153901032_JID_4122_Energie_neutraal

0 1

--Link1--
%chk=JID_4122.chk
%mem=8GB
%nprocshared=4
# B3LYP/6-311++G(d,p) empiricaldispersion=gd3bj scf=xqc pop=npa geom=check

CID_153901032_JID_4122_Energie_kation

1 2

--Link1--
%chk=JID_4122.chk
%mem=8GB
%nprocshared=4
# B3LYP/6-311++G(d,p) empiricaldispersion=gd3bj scf=xqc pop=npa geom=check

CID_153901032_JID_4122_Energie_anion

-1 2
