%chk=JID_10103.chk
%mem=8GB
%nprocshared=4
# opt=(cartesian,calcfc) freq B3LYP/6-31G(d) empiricaldispersion=gd3bj scf=xqc

CID_43676500_JID_10103_neutraal

0 1
6	-3.703706	 1.858572	 1.592689
6	-3.355793	 0.664944	 0.758962
7	-2.226923	 0.025823	 0.835965
6	-2.152830	 -1.015495	 -0.074609
6	-3.262547	 -1.177800	 -0.853255
16	-4.461692	 0.015159	 -0.454607
6	-0.876080	 -1.827603	 -0.134643
6	-0.871413	 -2.851460	 -1.280706
7	0.229757	 -0.895201	 -0.200500
6	1.532881	 -1.161149	 0.141537
6	2.475334	 -0.094485	 0.011640
7	3.777193	 -0.247374	 0.223845
6	4.226377	 -1.446263	 0.637839
6	3.382418	 -2.522803	 0.873481
6	2.014070	 -2.385686	 0.612246
7	1.961826	 1.156946	 -0.394790
6	1.172345	 1.902514	 0.608583
6	0.824775	 3.173994	 -0.159815
6	2.131745	 3.480957	 -0.929647
6	2.889076	 2.126108	 -0.998576
1	-3.631588	 2.786396	 1.014457
1	-4.720567	 1.792793	 1.993056
1	-2.995351	 1.917282	 2.423142
1	-3.436275	 -1.899132	 -1.638709
1	-0.783486	 -2.365478	 0.820768
1	-1.002890	 -2.344965	 -2.242372
1	0.086912	 -3.377192	 -1.307620
1	-1.668867	 -3.594444	 -1.162120
1	0.121366	 -0.079151	 -0.791496
1	5.299795	 -1.527627	 0.796902
1	3.781514	 -3.468028	 1.231031
1	1.344863	 -3.227667	 0.745325
1	1.789184	 2.140544	 1.492720
1	0.306512	 1.323760	 0.937166
1	0.005215	 2.961816	 -0.855993
1	0.511227	 3.992636	 0.495131
1	1.936700	 3.898673	 -1.921800
1	2.732935	 4.216293	 -0.381550
1	3.122203	 1.816500	 -2.020667
1	3.834794	 2.167016	 -0.439650

--Link1--
%chk=JID_10103.chk
%mem=8GB
%nprocshared=4
# B3LYP/6-311++G(d,p) empiricaldispersion=gd3bj scf=xqc pop=npa geom=check

CID_43676500_JID_10103_Energie_neutraal

0 1

--Link1--
%chk=JID_10103.chk
%mem=8GB
%nprocshared=4
# B3LYP/6-311++G(d,p) empiricaldispersion=gd3bj scf=xqc pop=npa geom=check

CID_43676500_JID_10103_Energie_kation

1 2

--Link1--
%chk=JID_10103.chk
%mem=8GB
%nprocshared=4
# B3LYP/6-311++G(d,p) empiricaldispersion=gd3bj scf=xqc pop=npa geom=check

CID_43676500_JID_10103_Energie_anion

-1 2
