%chk=JID_9052.chk
%mem=8GB
%nprocshared=4
# opt freq B3LYP/6-31G(d) empiricaldispersion=gd3bj scf=xqc

CID_105727430_JID_9052_neutraal

0 1
C          1.06430       -0.06771       -0.03580
C          0.42344       -0.63982       -1.29585
C          0.97761       -2.01810       -1.64194
C          0.55006       -2.67950       -2.96635
C          0.94231       -4.12114       -2.63560
C          0.53406       -4.26139       -1.18513
O          0.63005       -2.95459       -0.60190
C         -0.95769       -2.54040       -3.33168
C         -1.38070       -1.16275       -3.82377
C         -2.57255       -0.59559       -3.34737
C         -3.01691        0.66510       -3.77645
C         -2.27998        1.37279       -4.73992
C         -1.10166        0.79900       -5.23663
C         -0.65977       -0.45196       -4.78855
O         -2.77502        2.57134       -5.17910
C         -1.97144        3.34571       -6.05926
O         -4.20083        1.03448       -3.18955
C         -4.46532        2.42603       -3.07411
N         -1.32716       -3.51487       -4.37164
H          0.86978       -0.70308        0.83389
H          0.65684        0.92612        0.17544
H          2.14795        0.02936       -0.15645
H         -0.65394       -0.69852       -1.11050
H          0.60348        0.05706       -2.12036
H          2.07524       -1.95425       -1.63770
H          1.17187       -2.31102       -3.78984
H          0.50806       -4.89558       -3.27215
H          2.03306       -4.22110       -2.71380
H         -0.50290       -4.59836       -1.08777
H          1.17771       -4.95520       -0.63685
H         -1.54680       -2.78793       -2.43968
H         -3.17211       -1.13293       -2.61366
H         -0.50355        1.29331       -5.99530
H          0.24993       -0.86346       -5.21885
H         -0.99915        3.57616       -5.61115
H         -1.85592        2.84707       -7.02694
H         -2.48827        4.29418       -6.23470
H         -3.58049        2.99161       -2.76286
H         -4.89056        2.81631       -4.00336
H         -5.22314        2.55328       -2.29445
H         -2.32544       -3.41840       -4.56187
H         -0.85933       -3.26994       -5.24265

--Link1--
%chk=JID_9052.chk
%mem=8GB
%nprocshared=4
# B3LYP/6-311++G(d,p) empiricaldispersion=gd3bj scf=xqc pop=npa geom=check

CID_105727430_JID_9052_Energie_neutraal

0 1

--Link1--
%chk=JID_9052.chk
%mem=8GB
%nprocshared=4
# B3LYP/6-311++G(d,p) empiricaldispersion=gd3bj scf=xqc pop=npa geom=check

CID_105727430_JID_9052_Energie_kation

1 2

--Link1--
%chk=JID_9052.chk
%mem=8GB
%nprocshared=4
# B3LYP/6-311++G(d,p) empiricaldispersion=gd3bj scf=xqc pop=npa geom=check

CID_105727430_JID_9052_Energie_anion

-1 2
