%chk=JID_7360.chk
%mem=8GB
%nprocshared=4
# opt freq B3LYP/6-31G(d) empiricaldispersion=gd3bj scf=xqc

CID_100792195_JID_7360_neutraal

0 1
C          1.06274       -0.07439        0.02302
C          1.42629        0.65892        1.30207
N          1.76435        2.05713        1.06873
C          0.87645        3.11184        1.18711
C          1.56926        4.27308        0.91051
C          2.89851        3.91826        0.60936
C          3.00891        2.54203        0.70492
C          4.22246        1.69926        0.46315
N          4.49535        1.66238       -0.96859
C          5.62705        0.80438       -1.30807
C          5.32543       -0.67143       -1.18426
C          4.47430       -1.30393       -2.10307
C          4.18300       -2.66334       -1.98041
C          4.74017       -3.40502       -0.94059
C          5.58900       -2.78901       -0.02289
C          5.88042       -1.42915       -0.14295
C         -0.55855        2.95166        1.54808
H          0.20557        0.39391       -0.47172
H          0.80297       -1.11435        0.24348
H          1.89473       -0.07656       -0.68667
H          0.59046        0.62132        2.00810
H          2.26988        0.17979        1.80718
H          1.15447        5.27280        0.91737
H          3.70310        4.58839        0.33444
H          5.07117        2.15086        0.99163
H          4.09171        0.69482        0.87131
H          3.66188        1.34731       -1.45821
H          5.91238        1.00479       -2.34839
H          6.50745        1.07450       -0.71140
H          4.03518       -0.73708       -2.92130
H          3.52363       -3.14407       -2.69839
H          4.51590       -4.46440       -0.84756
H          6.02641       -3.36848        0.78606
H          6.54364       -0.96274        0.58225
H         -1.05335        2.23850        0.88163
H         -0.65976        2.60133        2.58002
H         -1.08942        3.90590        1.46551

--Link1--
%chk=JID_7360.chk
%mem=8GB
%nprocshared=4
# B3LYP/6-311++G(d,p) empiricaldispersion=gd3bj scf=xqc pop=npa geom=check

CID_100792195_JID_7360_Energie_neutraal

0 1

--Link1--
%chk=JID_7360.chk
%mem=8GB
%nprocshared=4
# B3LYP/6-311++G(d,p) empiricaldispersion=gd3bj scf=xqc pop=npa geom=check

CID_100792195_JID_7360_Energie_kation

1 2

--Link1--
%chk=JID_7360.chk
%mem=8GB
%nprocshared=4
# B3LYP/6-311++G(d,p) empiricaldispersion=gd3bj scf=xqc pop=npa geom=check

CID_100792195_JID_7360_Energie_anion

-1 2
