%chk=JID_2860.chk
%mem=8GB
%nprocshared=4
# opt freq B3LYP/6-31G(d) empiricaldispersion=gd3bj scf=xqc

CID_59800448_JID_2860_neutraal

0 1
C          2.32100       -0.05900       -0.00600
C          0.85424        0.11984        0.08246
C          0.09739        1.27860        0.08037
N         -1.19135        0.87861        0.31443
N         -1.35017       -0.45571        0.35182
C         -0.10372       -0.91397        0.23584
C          0.39343        2.66749       -0.03607
N         -0.25799        3.57656        0.66420
C          0.27634        4.78479        0.30380
C          1.23484        4.61940       -0.66502
N          1.27929        3.26883       -0.89752
C          2.05251        2.65194       -1.94587
H          2.63600       -0.95867        0.53323
H          2.63187       -0.16606       -1.04954
H          2.85211        0.79006        0.43509
H         -1.99871        1.48037        0.44065
H          0.06408       -1.98297        0.28006
H         -0.06572        5.70882        0.75172
H          1.85039        5.32650       -1.20318
H          2.22219        3.38245       -2.74206
H          3.01024        2.33639       -1.52714
H          1.50292        1.80346       -2.35918

--Link1--
%chk=JID_2860.chk
%mem=8GB
%nprocshared=4
# B3LYP/6-311++G(d,p) empiricaldispersion=gd3bj scf=xqc pop=npa geom=check

CID_59800448_JID_2860_Energie_neutraal

0 1

--Link1--
%chk=JID_2860.chk
%mem=8GB
%nprocshared=4
# B3LYP/6-311++G(d,p) empiricaldispersion=gd3bj scf=xqc pop=npa geom=check

CID_59800448_JID_2860_Energie_kation

1 2

--Link1--
%chk=JID_2860.chk
%mem=8GB
%nprocshared=4
# B3LYP/6-311++G(d,p) empiricaldispersion=gd3bj scf=xqc pop=npa geom=check

CID_59800448_JID_2860_Energie_anion

-1 2
