%chk=JID_8650.chk
%mem=8GB
%nprocshared=4
# opt freq B3LYP/6-31G(d) empiricaldispersion=gd3bj scf=xqc

CID_73439753_JID_8650_neutraal

0 1
C         -0.21100       -1.23000       -0.65100
C          0.52291       -2.02032        0.43336
N          1.50806       -1.17038        1.09732
C          0.96621        0.03234        1.72699
C          0.24553        0.89398        0.68897
C         -0.77937        0.08633       -0.11284
O         -1.94544       -0.16232        0.67490
C          2.74472       -1.04176        0.47137
N          3.12845       -1.97828       -0.41075
C          4.33578       -1.84654       -0.98537
C          5.18773       -0.80703       -0.72474
C          4.72834        0.11664        0.18467
N          3.52130        0.00706        0.77670
C          5.52355        1.30049        0.55466
C          6.54221        1.92724       -0.14749
C          7.08938        3.04916        0.54237
C          6.47679        3.25267        1.75607
S          5.25255        2.10141        2.05619
H         -1.01737       -1.85037       -1.05877
H          0.48323       -1.00877       -1.47090
H          0.95808       -2.93690        0.01777
H         -0.19988       -2.36372        1.18441
H          1.72589        0.61776        2.25853
H          0.25248       -0.27547        2.50173
H          0.98221        1.32003       -0.00304
H         -0.24835        1.72812        1.20050
H         -1.11913        0.69333       -0.95945
H         -1.69599       -0.68491        1.45470
H          4.60356       -2.63357       -1.68377
H          6.15462       -0.74080       -1.20098
H          6.88251        1.60704       -1.12443
H          7.88902        3.67505        0.16547
H          6.68592        4.02425        2.48426

--Link1--
%chk=JID_8650.chk
%mem=8GB
%nprocshared=4
# B3LYP/6-311++G(d,p) empiricaldispersion=gd3bj scf=xqc pop=npa geom=check

CID_73439753_JID_8650_Energie_neutraal

0 1

--Link1--
%chk=JID_8650.chk
%mem=8GB
%nprocshared=4
# B3LYP/6-311++G(d,p) empiricaldispersion=gd3bj scf=xqc pop=npa geom=check

CID_73439753_JID_8650_Energie_kation

1 2

--Link1--
%chk=JID_8650.chk
%mem=8GB
%nprocshared=4
# B3LYP/6-311++G(d,p) empiricaldispersion=gd3bj scf=xqc pop=npa geom=check

CID_73439753_JID_8650_Energie_anion

-1 2
