%chk=JID_6009.chk
%mem=8GB
%nprocshared=4
# opt freq B3LYP/6-31G(d) empiricaldispersion=gd3bj scf=xqc

CID_3375987_JID_6009_neutraal

0 1
C          1.01856        0.06311       -0.07532
C          0.58777        0.14431       -1.53260
C          0.98830       -1.09106       -2.35462
C          0.21637       -2.33934       -1.92830
N          0.74110       -0.84337       -3.77248
C          1.61392       -0.43988       -4.74297
O          1.16772       -0.19744       -5.86744
C          3.10470       -0.40554       -4.45940
C          3.58938        0.70414       -3.55459
C          4.50464        0.40259       -2.53104
C          4.98617        1.40120       -1.68076
C          4.56713        2.71908       -1.84361
C          3.67738        3.04041       -2.86558
C          3.21501        2.04353       -3.72828
O          2.31123        2.39483       -4.69332
C          2.98420        2.85495       -5.86508
H          0.49990       -0.74147        0.45357
H          0.78368        1.00139        0.43756
H          2.09690       -0.10551        0.00669
H         -0.49815        0.29366       -1.58271
H          1.03506        1.04271       -1.97192
H          2.05353       -1.29045       -2.21239
H         -0.86517       -2.18759       -2.01640
H          0.48083       -3.19141       -2.56470
H          0.44118       -2.61728       -0.89447
H         -0.22286       -0.78472       -4.07970
H          3.38706       -1.38803       -4.06130
H          3.62944       -0.31414       -5.41893
H          4.84642       -0.61986       -2.38289
H          5.68627        1.14851       -0.88831
H          4.93174        3.49504       -1.17600
H          3.33910        4.06528       -2.98989
H          3.50360        3.79993       -5.67276
H          3.68741        2.10617       -6.24583
H          2.22941        3.03380       -6.63663

--Link1--
%chk=JID_6009.chk
%mem=8GB
%nprocshared=4
# B3LYP/6-311++G(d,p) empiricaldispersion=gd3bj scf=xqc pop=npa geom=check

CID_3375987_JID_6009_Energie_neutraal

0 1

--Link1--
%chk=JID_6009.chk
%mem=8GB
%nprocshared=4
# B3LYP/6-311++G(d,p) empiricaldispersion=gd3bj scf=xqc pop=npa geom=check

CID_3375987_JID_6009_Energie_kation

1 2

--Link1--
%chk=JID_6009.chk
%mem=8GB
%nprocshared=4
# B3LYP/6-311++G(d,p) empiricaldispersion=gd3bj scf=xqc pop=npa geom=check

CID_3375987_JID_6009_Energie_anion

-1 2
