%chk=JID_6506.chk
%mem=8GB
%nprocshared=4
# opt freq B3LYP/6-31G(d) empiricaldispersion=gd3bj scf=xqc

CID_117156107_JID_6506_neutraal

0 1
C          0.55700       -1.13000        0.25200
C         -0.91876       -0.76419        0.12913
N         -0.96475        0.66706       -0.17146
C          0.26398        1.22350        0.40861
C          1.31501        0.18207        0.04985
C          2.58041        0.26592        0.82487
N          2.94114        1.33280        1.55426
N          4.14293        0.94967        2.00588
C          4.92731        1.76676        2.90203
C          6.37807        1.28363        2.98462
C          6.44572       -0.25357        3.11624
C          5.77657       -0.93064        1.90473
C          4.47665       -0.29670        1.56687
N          3.50801       -0.75234        0.80555
C          7.88406       -0.75346        3.26588
O          8.46625       -0.23351        4.45279
H          0.74968       -1.56617        1.24005
H          0.85336       -1.86994       -0.50000
H         -1.41078       -1.33733       -0.66261
H         -1.43844       -0.97389        1.07100
H         -1.78671        1.09998        0.24650
H          0.14687        1.33831        1.49378
H          0.49100        2.20497       -0.01943
H          1.56394        0.28123       -1.01634
H          4.44470        1.70836        3.88391
H          4.88572        2.80186        2.54790
H          6.86714        1.77482        3.83308
H          6.91795        1.59371        2.08022
H          5.89287       -0.52389        4.02737
H          6.42969       -0.86276        1.02572
H          5.62423       -1.99611        2.11246
H          7.89898       -1.84548        3.34474
H          8.50717       -0.47022        2.41034
H          8.87440        0.62248        4.23719

--Link1--
%chk=JID_6506.chk
%mem=8GB
%nprocshared=4
# B3LYP/6-311++G(d,p) empiricaldispersion=gd3bj scf=xqc pop=npa geom=check

CID_117156107_JID_6506_Energie_neutraal

0 1

--Link1--
%chk=JID_6506.chk
%mem=8GB
%nprocshared=4
# B3LYP/6-311++G(d,p) empiricaldispersion=gd3bj scf=xqc pop=npa geom=check

CID_117156107_JID_6506_Energie_kation

1 2

--Link1--
%chk=JID_6506.chk
%mem=8GB
%nprocshared=4
# B3LYP/6-311++G(d,p) empiricaldispersion=gd3bj scf=xqc pop=npa geom=check

CID_117156107_JID_6506_Energie_anion

-1 2
