%chk=JID_6196.chk
%mem=8GB
%nprocshared=4
# opt freq B3LYP/6-31G(d) empiricaldispersion=gd3bj scf=xqc

CID_154218033_JID_6196_neutraal

0 1
C          0.96542       -0.05636       -0.07502
C          0.28481       -0.65347       -1.06091
C         -1.16075       -0.47321       -1.27616
C         -1.80373        0.78298       -1.39638
C         -3.20150        0.81626       -1.56360
C         -3.93751       -0.36494       -1.60973
C         -3.31146       -1.59621       -1.50020
C         -1.92777       -1.65047       -1.33773
O         -5.29160       -0.35510       -1.77255
N         -1.10985        2.01600       -1.43147
C         -0.08698        2.44175       -2.30662
C          0.60588        3.62282       -2.00091
C          1.66616        4.06414       -2.79711
C          2.05552        3.32310       -3.90912
C          1.38664        2.14228       -4.22082
C          0.32729        1.70346       -3.42058
H          0.48401        0.61932        0.62460
H          2.03065       -0.22355        0.04105
H          0.79338       -1.32994       -1.74195
H         -3.70164        1.77271       -1.67734
H         -3.89508       -2.51148       -1.53806
H         -1.44928       -2.62272       -1.24018
H         -5.59091        0.56534       -1.85057
H         -1.65573        2.79668       -1.08474
H          0.33393        4.20140       -1.12191
H          2.19294        4.97925       -2.54072
H          2.88316        3.66009       -4.52728
H          1.68980        1.55566       -5.08379
H         -0.17848        0.78030       -3.68856

--Link1--
%chk=JID_6196.chk
%mem=8GB
%nprocshared=4
# B3LYP/6-311++G(d,p) empiricaldispersion=gd3bj scf=xqc pop=npa geom=check

CID_154218033_JID_6196_Energie_neutraal

0 1

--Link1--
%chk=JID_6196.chk
%mem=8GB
%nprocshared=4
# B3LYP/6-311++G(d,p) empiricaldispersion=gd3bj scf=xqc pop=npa geom=check

CID_154218033_JID_6196_Energie_kation

1 2

--Link1--
%chk=JID_6196.chk
%mem=8GB
%nprocshared=4
# B3LYP/6-311++G(d,p) empiricaldispersion=gd3bj scf=xqc pop=npa geom=check

CID_154218033_JID_6196_Energie_anion

-1 2
