%chk=JID_3255.chk
%mem=8GB
%nprocshared=4
# opt freq B3LYP/6-31G(d) empiricaldispersion=gd3bj scf=xqc

CID_103073495_JID_3255_neutraal

0 1
C          1.05325        0.05562       -0.06380
C          0.45913       -0.03918        1.33754
N          1.16948       -0.96681        2.24885
C          0.35952       -1.09731        3.48453
C          0.50684       -2.45199        4.13932
C          1.11467       -2.59791        5.33144
C         -0.05801       -3.63406        3.39076
S         -1.85180       -3.74505        3.63894
C          2.54621       -0.48021        2.55363
C          3.68419       -1.49057        2.21279
C          3.64020       -2.00501        0.77402
C          5.04371       -0.83830        2.48351
O          3.59540       -2.62657        3.07791
H          2.03878        0.52858       -0.06580
H          0.40093        0.66260       -0.70092
H          1.13552       -0.93347       -0.52513
H          0.39328        0.96402        1.77797
H         -0.57007       -0.39655        1.20091
H          0.57263       -0.28082        4.18795
H         -0.70933       -0.98325        3.25872
H          1.22702       -3.57136        5.79996
H          1.53300       -1.74849        5.86342
H          0.15852       -3.56522        2.32017
H          0.38755       -4.57022        3.74468
H         -1.80809       -3.83920        4.97554
H          2.75001        0.46342        2.03225
H          2.63170       -0.23320        3.62057
H          3.73818       -1.19233        0.04880
H          4.45247       -2.71976        0.59530
H          2.71303       -2.55290        0.57453
H          5.11942       -0.51230        3.52717
H          5.86021       -1.55190        2.32355
H          5.21014        0.02922        1.83636
H          2.67572       -2.93576        2.99666

--Link1--
%chk=JID_3255.chk
%mem=8GB
%nprocshared=4
# B3LYP/6-311++G(d,p) empiricaldispersion=gd3bj scf=xqc pop=npa geom=check

CID_103073495_JID_3255_Energie_neutraal

0 1

--Link1--
%chk=JID_3255.chk
%mem=8GB
%nprocshared=4
# B3LYP/6-311++G(d,p) empiricaldispersion=gd3bj scf=xqc pop=npa geom=check

CID_103073495_JID_3255_Energie_kation

1 2

--Link1--
%chk=JID_3255.chk
%mem=8GB
%nprocshared=4
# B3LYP/6-311++G(d,p) empiricaldispersion=gd3bj scf=xqc pop=npa geom=check

CID_103073495_JID_3255_Energie_anion

-1 2
