%chk=JID_1554.chk
%mem=8GB
%nprocshared=4
# opt freq B3LYP/6-31G(d) empiricaldispersion=gd3bj scf=xqc

CID_131846788_JID_1554_neutraal

0 1
C         -2.73346       -1.52198       -2.74925
C         -1.31870       -0.99360       -2.47577
C         -1.05341        0.16172       -3.45453
C         -1.07708       -0.59006       -0.98532
C         -1.37779       -1.72076        0.01131
C         -2.74351       -1.37787        0.55456
C         -2.78322        0.13670        0.45820
O         -1.95026        0.50549       -0.63955
C         -2.28800        0.82693        1.72402
O         -4.10596        0.55251        0.18188
C          0.36550       -0.10042       -0.77969
H         -3.49817       -0.78633       -2.48050
H         -2.92807       -2.44668       -2.19896
H         -2.86014       -1.75911       -3.81168
H         -0.61839       -1.80203       -2.72594
H         -1.67909        1.03154       -3.22920
H         -0.00573        0.47488       -3.43296
H         -1.26693       -0.14516       -4.48464
H         -1.33220       -2.71974       -0.43319
H         -0.66055       -1.71851        0.84167
H         -2.90065       -1.75050        1.57210
H         -3.52798       -1.82846       -0.06330
H         -2.28846        1.91497        1.59092
H         -2.93944        0.60456        2.57566
H         -1.26302        0.53532        1.97320
H         -4.03640        1.50875        0.02465
H          1.09342       -0.85651       -1.09060
H          0.55950        0.82871       -1.32500
H          0.55195        0.14238        0.27299

--Link1--
%chk=JID_1554.chk
%mem=8GB
%nprocshared=4
# B3LYP/6-311++G(d,p) empiricaldispersion=gd3bj scf=xqc pop=npa geom=check

CID_131846788_JID_1554_Energie_neutraal

0 1

--Link1--
%chk=JID_1554.chk
%mem=8GB
%nprocshared=4
# B3LYP/6-311++G(d,p) empiricaldispersion=gd3bj scf=xqc pop=npa geom=check

CID_131846788_JID_1554_Energie_kation

1 2

--Link1--
%chk=JID_1554.chk
%mem=8GB
%nprocshared=4
# B3LYP/6-311++G(d,p) empiricaldispersion=gd3bj scf=xqc pop=npa geom=check

CID_131846788_JID_1554_Energie_anion

-1 2
