%chk=JID_7630.chk
%mem=8GB
%nprocshared=4
# opt freq B3LYP/6-31G(d) empiricaldispersion=gd3bj scf=xqc

CID_80573009_JID_7630_neutraal

0 1
C          1.04577        0.08490        0.02640
C          0.43883       -0.96532       -0.89109
C          0.63855       -2.42023       -0.41597
C          0.05941       -2.64200        0.98608
C         -0.00708       -3.43272       -1.39400
N          0.73466       -3.51981       -2.65552
C          1.84895       -4.45981       -2.71939
C          1.39564       -5.80400       -3.27128
C          0.32310       -2.76886       -3.72131
N         -0.77608       -2.04091       -3.70423
C         -0.90216       -1.29640       -4.85727
C          0.10158       -1.45915       -5.78396
S          1.20812       -2.62626       -5.20712
C          0.30780       -0.80968       -7.05284
O          1.20384       -1.04295       -7.85493
O         -0.64857        0.14968       -7.23614
C         -0.49702        0.90184       -8.44041
H          0.52159        0.13368        0.98519
H          0.97299        1.07438       -0.43685
H          2.10341       -0.12283        0.21643
H         -0.63043       -0.75438       -1.01331
H          0.90609       -0.83559       -1.87259
H          1.71724       -2.61766       -0.36303
H         -1.00545       -2.38873        1.01964
H          0.16913       -3.68816        1.29209
H          0.58055       -2.03633        1.73374
H         -0.01397       -4.42788       -0.92969
H         -1.06524       -3.18824       -1.55400
H          2.68314       -4.06665       -3.31080
H          2.26005       -4.61847       -1.71446
H          1.01053       -5.71178       -4.29149
H          2.23344       -6.50811       -3.28758
H          0.60142       -6.23592       -2.65329
H         -1.75109       -0.63091       -4.95988
H          0.47298        1.40898       -8.45799
H         -0.61349        0.25296       -9.31364
H         -1.28271        1.66204       -8.46497

--Link1--
%chk=JID_7630.chk
%mem=8GB
%nprocshared=4
# B3LYP/6-311++G(d,p) empiricaldispersion=gd3bj scf=xqc pop=npa geom=check

CID_80573009_JID_7630_Energie_neutraal

0 1

--Link1--
%chk=JID_7630.chk
%mem=8GB
%nprocshared=4
# B3LYP/6-311++G(d,p) empiricaldispersion=gd3bj scf=xqc pop=npa geom=check

CID_80573009_JID_7630_Energie_kation

1 2

--Link1--
%chk=JID_7630.chk
%mem=8GB
%nprocshared=4
# B3LYP/6-311++G(d,p) empiricaldispersion=gd3bj scf=xqc pop=npa geom=check

CID_80573009_JID_7630_Energie_anion

-1 2
