%chk=JID_7072.chk
%mem=8GB
%nprocshared=4
# opt freq B3LYP/6-31G(d) empiricaldispersion=gd3bj scf=xqc

CID_103773558_JID_7072_neutraal

0 1
C          1.06259        0.06970        0.03500
C          0.55293       -1.25726       -0.51824
C          1.69325       -2.19254       -0.98357
C          1.16808       -3.44707       -1.69930
C          0.64923       -4.53126       -0.75810
N          1.60202       -4.87510        0.30175
C          2.12017       -3.72121        1.03752
C          2.66878       -2.63378        0.11633
C          1.46518       -6.16189        0.84401
O          0.64203       -6.94499        0.34543
C          2.38184       -6.68178        1.99080
C          3.88276       -6.54717        1.69630
C          4.61450       -6.51279        3.03470
C          3.86695       -5.55237        3.94338
S          2.10704       -5.79633        3.57820
C          2.04113       -8.16100        2.27968
O         -0.25391       -1.87581        0.47201
H          1.57291       -0.06171        0.99439
H          0.22053        0.74352        0.22962
H          1.74027        0.56337       -0.66777
H         -0.09280       -1.04519       -1.37916
H          2.27257       -1.62226       -1.72346
H          0.38803       -3.17929       -2.42160
H          1.99468       -3.87360       -2.28402
H         -0.29141       -4.23638       -0.28106
H          0.42595       -5.41731       -1.36386
H          2.93268       -4.01202        1.69685
H          1.31665       -3.34103        1.67596
H          3.56803       -3.03228       -0.37412
H          3.00805       -1.78054        0.71216
H          4.24449       -7.38407        1.08653
H          4.12259       -5.64784        1.12082
H          5.65544       -6.19751        2.90572
H          4.64316       -7.51364        3.48212
H          4.13465       -4.51475        3.72184
H          4.07656       -5.74559        4.99893
H          0.98316       -8.29059        2.54040
H          2.22763       -8.77886        1.39262
H          2.63746       -8.58571        3.09500
H         -0.98980       -1.27357        0.67906

--Link1--
%chk=JID_7072.chk
%mem=8GB
%nprocshared=4
# B3LYP/6-311++G(d,p) empiricaldispersion=gd3bj scf=xqc pop=npa geom=check

CID_103773558_JID_7072_Energie_neutraal

0 1

--Link1--
%chk=JID_7072.chk
%mem=8GB
%nprocshared=4
# B3LYP/6-311++G(d,p) empiricaldispersion=gd3bj scf=xqc pop=npa geom=check

CID_103773558_JID_7072_Energie_kation

1 2

--Link1--
%chk=JID_7072.chk
%mem=8GB
%nprocshared=4
# B3LYP/6-311++G(d,p) empiricaldispersion=gd3bj scf=xqc pop=npa geom=check

CID_103773558_JID_7072_Energie_anion

-1 2
