%chk=JID_2589.chk
%mem=8GB
%nprocshared=4
# opt freq B3LYP/6-31G(d) empiricaldispersion=gd3bj scf=xqc

CID_87256706_JID_2589_neutraal

0 1
C          0.94300        0.02086        0.07947
C          0.22184        0.24483        1.41507
C          0.70878        1.46380        2.21153
C         -0.13213        2.74203        2.02848
N         -1.47950        2.62320        2.58332
N          0.58529        3.89096        2.57016
C          0.64488        4.10683        3.83043
N          0.06859        3.39548        4.82337
N          1.37445        5.14060        4.30115
C          0.72920        1.14023       -0.94148
C          1.35427        0.84887       -2.30831
N          0.68218       -0.24308       -3.00356
H          0.58251       -0.92997       -0.32945
H          2.01728       -0.10598        0.26174
H         -0.85986        0.27596        1.24918
H          0.40765       -0.64728        2.02767
H          0.70775        1.18965        3.27479
H          1.75865        1.67033        1.96640
H         -0.25097        2.93602        0.95837
H         -1.93709        3.51444        2.39029
H         -1.99154        1.93429        2.03465
H         -0.25615        3.92185        5.61862
H         -0.66973        2.79787        4.44270
H          1.67506        5.75234        3.55080
H          0.99154        5.64267        5.08671
H         -0.34351        1.33666       -1.06092
H          1.18439        2.06265       -0.56356
H          1.28038        1.74896       -2.92843
H          2.41894        0.61557       -2.19740
H          1.11433       -0.37359       -3.91767
H          0.82894       -1.11628       -2.49968

--Link1--
%chk=JID_2589.chk
%mem=8GB
%nprocshared=4
# B3LYP/6-311++G(d,p) empiricaldispersion=gd3bj scf=xqc pop=npa geom=check

CID_87256706_JID_2589_Energie_neutraal

0 1

--Link1--
%chk=JID_2589.chk
%mem=8GB
%nprocshared=4
# B3LYP/6-311++G(d,p) empiricaldispersion=gd3bj scf=xqc pop=npa geom=check

CID_87256706_JID_2589_Energie_kation

1 2

--Link1--
%chk=JID_2589.chk
%mem=8GB
%nprocshared=4
# B3LYP/6-311++G(d,p) empiricaldispersion=gd3bj scf=xqc pop=npa geom=check

CID_87256706_JID_2589_Energie_anion

-1 2
