%chk=JID_10445.chk
%mem=8GB
%nprocshared=4
# opt freq B3LYP/6-31G(d) empiricaldispersion=gd3bj scf=xqc

CID_20315579_JID_10445_neutraal

0 1
C          1.02775       -0.08270        0.04890
C          1.04373       -0.36701        1.54383
C          1.37134        0.86264        2.39542
C          0.38998        2.03274        2.26777
C         -1.03838        1.73628        2.73872
C         -1.17762        1.56453        4.25068
O         -1.00237        2.83437        4.90053
C          0.14562        3.02256        5.60749
O          1.02408        2.18356        5.76531
C          0.17666        4.40826        6.24742
O         -0.45733        5.45544        5.51547
C          0.26365        5.85095        4.42304
C          1.50573        6.46937        4.54039
C          2.18342        6.88247        3.39034
C          1.61706        6.68879        2.12186
C          0.35170        6.09846        2.01791
C         -0.32767        5.69448        3.17097
C          2.38703        7.13629        0.92353
O          3.42113        7.78530        1.06715
C          1.87591        6.77728       -0.44715
H          0.20044        0.57851       -0.22472
H          0.90227       -1.01626       -0.50905
H          1.96544        0.38081       -0.27341
H          0.08434       -0.80029        1.84577
H          1.80315       -1.13327        1.74195
H          1.44407        0.55269        3.44374
H          2.37005        1.22272        2.11757
H          0.79314        2.88173        2.83014
H          0.35229        2.36320        1.22342
H         -1.67040        2.57760        2.42741
H         -1.42609        0.84634        2.23281
H         -2.20036        1.24402        4.47788
H         -0.51172        0.78956        4.64302
H         -0.35431        4.32139        7.20214
H          1.21595        4.66125        6.48808
H          1.94866        6.65316        5.51495
H          3.15574        7.36296        3.48854
H         -0.13189        5.94915        1.05731
H         -1.31424        5.24409        3.09214
H          1.72374        5.69755       -0.52643
H          0.95051        7.31871       -0.65860
H          2.62209        7.06428       -1.19479

--Link1--
%chk=JID_10445.chk
%mem=8GB
%nprocshared=4
# B3LYP/6-311++G(d,p) empiricaldispersion=gd3bj scf=xqc pop=npa geom=check

CID_20315579_JID_10445_Energie_neutraal

0 1

--Link1--
%chk=JID_10445.chk
%mem=8GB
%nprocshared=4
# B3LYP/6-311++G(d,p) empiricaldispersion=gd3bj scf=xqc pop=npa geom=check

CID_20315579_JID_10445_Energie_kation

1 2

--Link1--
%chk=JID_10445.chk
%mem=8GB
%nprocshared=4
# B3LYP/6-311++G(d,p) empiricaldispersion=gd3bj scf=xqc pop=npa geom=check

CID_20315579_JID_10445_Energie_anion

-1 2
