%chk=JID_753.chk
%mem=8GB
%nprocshared=4
# opt freq B3LYP/6-31G(d) empiricaldispersion=gd3bj scf=xqc

CID_87600966_JID_753_neutraal

0 1
C          0.90249       -0.00857       -0.02046
C          0.77248        0.06159       -1.53423
C          0.83991       -1.30514       -2.22278
C         -0.23302       -2.31331       -1.79842
C         -1.66921       -1.93703       -2.17795
N         -1.93575       -2.19595       -3.59369
C         -2.36380       -3.55824       -3.92992
C         -3.88176       -3.65505       -3.93933
C         -1.91069       -1.23315       -4.57053
N         -1.63693        0.01775       -4.48411
H          0.03315       -0.49201        0.43460
H          0.97301        1.00118        0.39685
H          1.80156       -0.55942        0.27300
H         -0.15596        0.58064       -1.78909
H          1.58925        0.68114       -1.92432
H          0.80085       -1.15961       -3.30823
H          1.82252       -1.74710       -2.01292
H          0.02104       -3.28573       -2.23862
H         -0.18314       -2.45686       -0.71313
H         -2.35124       -2.54881       -1.57335
H         -1.90183       -0.90367       -1.90380
H         -1.96702       -3.84612       -4.91079
H         -1.95849       -4.27972       -3.21084
H         -4.31773       -2.97777       -4.68098
H         -4.19556       -4.67463       -4.18345
H         -4.30057       -3.39412       -2.96186
H         -2.17310       -1.62884       -5.56775
H         -1.41214        0.26197       -3.52230

--Link1--
%chk=JID_753.chk
%mem=8GB
%nprocshared=4
# B3LYP/6-311++G(d,p) empiricaldispersion=gd3bj scf=xqc pop=npa geom=check

CID_87600966_JID_753_Energie_neutraal

0 1

--Link1--
%chk=JID_753.chk
%mem=8GB
%nprocshared=4
# B3LYP/6-311++G(d,p) empiricaldispersion=gd3bj scf=xqc pop=npa geom=check

CID_87600966_JID_753_Energie_kation

1 2

--Link1--
%chk=JID_753.chk
%mem=8GB
%nprocshared=4
# B3LYP/6-311++G(d,p) empiricaldispersion=gd3bj scf=xqc pop=npa geom=check

CID_87600966_JID_753_Energie_anion

-1 2
