%chk=JID_10209.chk
%mem=8GB
%nprocshared=4
# opt freq B3LYP/6-31G(d) empiricaldispersion=gd3bj scf=xqc

CID_65119022_JID_10209_neutraal

0 1
C          1.07643        0.00597        0.06421
C         -0.13370       -0.93235        0.07740
C          0.21142       -2.31375       -0.49265
C          1.08430       -3.14821        0.44787
C          0.48299       -3.27741        1.85866
C          0.13331       -1.89262        2.43328
C         -0.73445       -1.06351        1.48228
C          1.47189       -4.04851        2.77004
N          0.97494       -4.21969        4.13422
C          0.52993       -5.34325        4.78614
O          0.11146       -5.20070        5.93273
C          0.60161       -6.60844        4.10634
C          1.76155       -7.24685        3.67387
C          1.40360       -8.44903        3.02809
C          0.03475       -8.54329        3.09865
N         -0.44081       -7.45598        3.79138
C         -1.86468       -7.32955        4.05219
C         -2.41429       -7.00162        5.42589
C         -2.59898       -6.03092        4.30906
O         -0.72545       -4.03947        1.74248
H          0.79564        0.99980        0.42901
H          1.46008        0.12346       -0.95491
H          1.89612       -0.35960        0.68937
H         -0.89368       -0.47996       -0.57309
H         -0.72095       -2.85814       -0.69036
H          0.71584       -2.20808       -1.46062
H          2.08522       -2.70375        0.50497
H          1.20267       -4.14433        0.00248
H          1.05157       -1.34065        2.66649
H         -0.42319       -2.00135        3.37233
H         -0.90296       -0.07025        1.91546
H         -1.72267       -1.53454        1.40156
H          1.68040       -5.02294        2.32507
H          2.41877       -3.50350        2.85235
H          0.93780       -3.40115        4.72934
H          2.76597       -6.86359        3.80603
H          2.06764       -9.16873        2.56686
H         -0.63451       -9.31127        2.73443
H         -2.43574       -8.09733        3.53088
H         -3.28198       -7.55594        5.76755
H         -1.72640       -6.75802        6.22618
H         -2.07482       -5.08984        4.38661
H         -3.59312       -5.92786        3.88591
H         -1.00778       -4.25767        2.64749

--Link1--
%chk=JID_10209.chk
%mem=8GB
%nprocshared=4
# B3LYP/6-311++G(d,p) empiricaldispersion=gd3bj scf=xqc pop=npa geom=check

CID_65119022_JID_10209_Energie_neutraal

0 1

--Link1--
%chk=JID_10209.chk
%mem=8GB
%nprocshared=4
# B3LYP/6-311++G(d,p) empiricaldispersion=gd3bj scf=xqc pop=npa geom=check

CID_65119022_JID_10209_Energie_kation

1 2

--Link1--
%chk=JID_10209.chk
%mem=8GB
%nprocshared=4
# B3LYP/6-311++G(d,p) empiricaldispersion=gd3bj scf=xqc pop=npa geom=check

CID_65119022_JID_10209_Energie_anion

-1 2
