%chk=JID_8486.chk
%mem=8GB
%nprocshared=4
# opt freq B3LYP/6-31G(d) empiricaldispersion=gd3bj scf=xqc

CID_138333009_JID_8486_neutraal

0 1
C          1.06437        0.00192        0.07650
C          0.47786       -0.99673        1.04005
O          0.06963       -0.64279        2.14922
C          0.48501       -2.46467        0.62710
N          0.05693       -2.65164       -0.77522
C          1.07040       -3.25955       -1.66711
C          1.06650       -4.78206       -1.63509
O          1.05651       -5.51865       -2.61000
O          1.14419       -5.30337       -0.39104
C         -1.29933       -2.67948       -1.10356
C         -1.76116       -3.12273       -2.35695
C         -3.12311       -3.13116       -2.69758
C         -4.07888       -2.68179       -1.78965
C         -3.65861       -2.22762       -0.54257
C         -2.29348       -2.22817       -0.21397
C         -5.50549       -2.70061       -2.19020
O         -5.94114       -3.08886       -3.25834
O         -6.32299       -2.22799       -1.23281
H          1.14434        0.97735        0.56489
H          0.41897        0.10153       -0.79909
H          2.06521       -0.31910       -0.22285
H          1.51360       -2.81562        0.77575
H         -0.14114       -3.04795        1.31235
H          0.94008       -2.91721       -2.69958
H          2.07703       -2.92849       -1.38265
H          1.10233       -6.27167       -0.53783
H         -1.07890       -3.48443       -3.12098
H         -3.42485       -3.48995       -3.67999
H         -4.37644       -1.86472        0.18933
H         -2.04277       -1.85194        0.77456
H         -7.21554       -2.29578       -1.63182

--Link1--
%chk=JID_8486.chk
%mem=8GB
%nprocshared=4
# B3LYP/6-311++G(d,p) empiricaldispersion=gd3bj scf=xqc pop=npa geom=check

CID_138333009_JID_8486_Energie_neutraal

0 1

--Link1--
%chk=JID_8486.chk
%mem=8GB
%nprocshared=4
# B3LYP/6-311++G(d,p) empiricaldispersion=gd3bj scf=xqc pop=npa geom=check

CID_138333009_JID_8486_Energie_kation

1 2

--Link1--
%chk=JID_8486.chk
%mem=8GB
%nprocshared=4
# B3LYP/6-311++G(d,p) empiricaldispersion=gd3bj scf=xqc pop=npa geom=check

CID_138333009_JID_8486_Energie_anion

-1 2
