%chk=JID_9388.chk
%mem=8GB
%nprocshared=4
# opt freq B3LYP/6-31G(d) empiricaldispersion=gd3bj scf=xqc

CID_71669781_JID_9388_neutraal

0 1
C          0.90948        0.03230       -0.02760
C          0.31908        1.38584        0.39554
C          0.89277        2.47678       -0.51548
C         -1.20854        1.30718        0.30059
O          0.74893        1.56605        1.76876
C          0.40816        2.67351        2.46081
O         -0.24908        3.62055        2.06806
C          0.99495        2.58721        3.88580
O          1.49678        1.58202        4.35849
O          0.84136        3.82436        4.47674
C          1.31616        3.92090        5.78942
C          0.39554        4.26852        6.77864
C          0.82934        4.42929        8.09597
C          2.18751        4.25351        8.40255
C          3.11204        3.92574        7.39887
C          2.67283        3.76837        6.08247
N          2.64774        4.42436        9.78698
O          1.79919        4.70361       10.64599
O          3.85767        4.28242       10.01419
H          0.64886       -0.22049       -1.06073
H          0.55053       -0.77093        0.62651
H          2.00206        0.03868        0.06235
H          0.70547        2.25329       -1.57132
H          0.45362        3.45684       -0.30605
H          1.97369        2.57855       -0.36705
H         -1.60546        0.57892        1.01682
H         -1.68170        2.26583        0.53402
H         -1.53115        1.01782       -0.70535
H         -0.65220        4.41435        6.52808
H          0.10549        4.69355        8.86438
H          4.16835        3.79274        7.62437
H          3.38710        3.52200        5.30126

--Link1--
%chk=JID_9388.chk
%mem=8GB
%nprocshared=4
# B3LYP/6-311++G(d,p) empiricaldispersion=gd3bj scf=xqc pop=npa geom=check

CID_71669781_JID_9388_Energie_neutraal

0 1

--Link1--
%chk=JID_9388.chk
%mem=8GB
%nprocshared=4
# B3LYP/6-311++G(d,p) empiricaldispersion=gd3bj scf=xqc pop=npa geom=check

CID_71669781_JID_9388_Energie_kation

1 2

--Link1--
%chk=JID_9388.chk
%mem=8GB
%nprocshared=4
# B3LYP/6-311++G(d,p) empiricaldispersion=gd3bj scf=xqc pop=npa geom=check

CID_71669781_JID_9388_Energie_anion

-1 2
