%chk=JID_270.chk
%mem=8GB
%nprocshared=4
# opt freq B3LYP/6-31G(d) empiricaldispersion=gd3bj scf=xqc

CID_130713814_JID_270_neutraal

0 1
C          1.06288       -0.06948       -0.03491
C          0.47085        0.01880        1.39216
C          0.95802        1.35795        1.98603
C         -1.11622       -0.02017        1.33953
C         -1.67143       -1.23547        0.59944
C         -2.44445       -2.22678        1.06873
N         -1.68334        0.16751        2.70164
N         -3.06576        0.60467        2.64533
S          1.20371       -1.44673        2.30488
C          1.30150       -0.85152        4.01230
H          0.63994        0.71153       -0.67800
H          0.86694       -1.03313       -0.51780
H          2.15056        0.07478       -0.02898
H          0.61409        2.19734        1.36945
H          0.58157        1.53823        2.99751
H          2.05258        1.41146        2.01880
H         -1.41546        0.85435        0.74197
H         -1.41390       -1.28121       -0.45720
H         -2.77292       -3.02712        0.41309
H         -2.78029       -2.26731        2.09853
H         -1.58392       -0.72954        3.18860
H         -3.43697        0.75426        3.58768
H         -3.14643        1.51476        2.18318
H          2.04194       -0.05328        4.10403
H          0.33392       -0.51196        4.38392
H          1.62941       -1.68002        4.64696

--Link1--
%chk=JID_270.chk
%mem=8GB
%nprocshared=4
# B3LYP/6-311++G(d,p) empiricaldispersion=gd3bj scf=xqc pop=npa geom=check

CID_130713814_JID_270_Energie_neutraal

0 1

--Link1--
%chk=JID_270.chk
%mem=8GB
%nprocshared=4
# B3LYP/6-311++G(d,p) empiricaldispersion=gd3bj scf=xqc pop=npa geom=check

CID_130713814_JID_270_Energie_kation

1 2

--Link1--
%chk=JID_270.chk
%mem=8GB
%nprocshared=4
# B3LYP/6-311++G(d,p) empiricaldispersion=gd3bj scf=xqc pop=npa geom=check

CID_130713814_JID_270_Energie_anion

-1 2
