%chk=JID_4654.chk
%mem=8GB
%nprocshared=4
# opt freq B3LYP/6-31G(d) empiricaldispersion=gd3bj scf=xqc

CID_149045614_JID_4654_neutraal

0 1
C          0.92782        0.06561       -0.02203
C          0.32262        1.27868       -0.75880
C          1.10253        1.50447       -2.08338
C          0.77093        0.63435       -3.29616
C          1.32109        1.43955       -4.46599
C          0.92809        2.88399       -4.13603
C          1.14972        2.95521       -2.61317
N         -0.46948        3.21968       -4.42210
C         -0.77548        3.25783       -5.84193
C         -1.23052        1.16128       -0.73540
C         -1.82395       -0.13206       -1.31649
C         -2.94552        0.32422       -2.23749
N         -2.55025        1.67523       -2.62965
C         -2.03133        2.27730       -1.40249
H          0.84729       -0.85205       -0.61272
H          0.42913       -0.10019        0.93899
H          1.98980        0.23214        0.19018
H          0.55705        2.14892       -0.12756
H          2.15524        1.28101       -1.84547
H          1.23347       -0.35527       -3.23085
H         -0.29854        0.49655       -3.44468
H          0.94387        1.07950       -5.42656
H          2.41489        1.35317       -4.49445
H          1.58416        3.60019       -4.64374
H          0.46362        3.63867       -2.10862
H          2.15113        3.36496       -2.42172
H         -1.10059        2.55905       -3.94944
H         -0.72241        2.26796       -6.30356
H         -1.79627        3.62824       -5.97972
H         -0.10670        3.94007       -6.37637
H         -1.50767        1.18168        0.32984
H         -2.21642       -0.77606       -0.52122
H         -1.08952       -0.72444       -1.86718
H         -3.05442       -0.33134       -3.10612
H         -3.90065        0.34660       -1.69947
H         -3.35737        2.20085       -2.96537
H         -2.87526        2.55970       -0.75899
H         -1.46824        3.18891       -1.59118

--Link1--
%chk=JID_4654.chk
%mem=8GB
%nprocshared=4
# B3LYP/6-311++G(d,p) empiricaldispersion=gd3bj scf=xqc pop=npa geom=check

CID_149045614_JID_4654_Energie_neutraal

0 1

--Link1--
%chk=JID_4654.chk
%mem=8GB
%nprocshared=4
# B3LYP/6-311++G(d,p) empiricaldispersion=gd3bj scf=xqc pop=npa geom=check

CID_149045614_JID_4654_Energie_kation

1 2

--Link1--
%chk=JID_4654.chk
%mem=8GB
%nprocshared=4
# B3LYP/6-311++G(d,p) empiricaldispersion=gd3bj scf=xqc pop=npa geom=check

CID_149045614_JID_4654_Energie_anion

-1 2
