%chk=JID_8990.chk
%mem=8GB
%nprocshared=4
# opt freq B3LYP/6-31G(d) empiricaldispersion=gd3bj scf=xqc

CID_63107712_JID_8990_neutraal

0 1
C          1.00784        0.07995       -0.05956
C          1.09373       -1.44455       -0.10102
C          1.75951       -1.96749        1.17493
N         -0.24971       -2.04473       -0.18349
C         -1.04794       -1.85119       -1.32782
C         -2.43059       -1.67598       -1.10962
C         -3.33317       -1.48926       -2.16260
C         -2.88085       -1.49278       -3.47528
C         -1.53091       -1.71040       -3.73074
C         -0.62667       -1.91829       -2.67217
C          0.75387       -2.21336       -3.10112
O          1.41787       -1.33090       -3.63764
N          1.25867       -3.47551       -2.93838
C          0.60896       -4.65452       -2.37670
C         -0.08959       -5.46026       -3.46407
C          1.67951       -5.51221       -1.68250
O          2.88414       -5.41482       -1.90381
N          1.21073       -6.45998       -0.81614
H          0.37522        0.42183        0.76727
H          0.58502        0.48032       -0.98680
H          2.00179        0.52158        0.06849
H          1.73294       -1.75207       -0.92833
H          1.19027       -1.68755        2.06852
H          1.82742       -3.06098        1.15468
H          2.77362       -1.56744        1.27795
H         -0.77560       -1.82505        0.66109
H         -2.82545       -1.66378       -0.09566
H         -4.38837       -1.33501       -1.95074
H         -3.57491       -1.33712       -4.29690
H         -1.17397       -1.73073       -4.75890
H          2.22654       -3.58582       -3.22709
H         -0.12185       -4.35498       -1.62329
H         -0.58440       -6.34309       -3.04607
H         -0.84609       -4.85808       -3.97742
H          0.62607       -5.80810       -4.21788
H          0.28122       -6.40092       -0.42283
H          1.91001       -6.97607       -0.29711

--Link1--
%chk=JID_8990.chk
%mem=8GB
%nprocshared=4
# B3LYP/6-311++G(d,p) empiricaldispersion=gd3bj scf=xqc pop=npa geom=check

CID_63107712_JID_8990_Energie_neutraal

0 1

--Link1--
%chk=JID_8990.chk
%mem=8GB
%nprocshared=4
# B3LYP/6-311++G(d,p) empiricaldispersion=gd3bj scf=xqc pop=npa geom=check

CID_63107712_JID_8990_Energie_kation

1 2

--Link1--
%chk=JID_8990.chk
%mem=8GB
%nprocshared=4
# B3LYP/6-311++G(d,p) empiricaldispersion=gd3bj scf=xqc pop=npa geom=check

CID_63107712_JID_8990_Energie_anion

-1 2
