%chk=JID_8363.chk
%mem=8GB
%nprocshared=4
# opt freq B3LYP/6-31G(d) empiricaldispersion=gd3bj scf=xqc

CID_143128508_JID_8363_neutraal

0 1
C          0.98611        0.07231       -0.06766
C          0.65157       -0.02165        1.40048
O          0.07049        0.90158        1.96399
C          1.06166       -1.25186        2.14448
C          0.38660       -1.67311        3.29964
C          0.82631       -2.79650        4.00589
C          1.92133       -3.52923        3.54877
C          2.60022       -3.13067        2.39528
C          2.16419       -1.99742        1.69461
S          3.99695       -4.09291        1.83646
C          5.24913       -2.84151        1.61106
C          5.87625       -2.71753        0.36682
C          6.85568       -1.74269        0.16487
C          7.21770       -0.89124        1.20740
C          6.60587       -1.01682        2.45353
C          5.62731       -1.99215        2.65685
O         -0.67594       -0.99806        3.83783
C         -1.89499       -1.37533        3.19848
H          0.29253        0.77020       -0.54712
H          0.86259       -0.89604       -0.56015
H          2.00704        0.44105       -0.19363
H          0.31322       -3.09850        4.91574
H          2.24487       -4.40471        4.10776
H          2.71191       -1.68919        0.80794
H          5.60762       -3.37741       -0.45477
H          7.33816       -1.65026       -0.80489
H          7.98107       -0.13304        1.05076
H          6.89209       -0.35724        3.26905
H          5.16523       -2.08065        3.63721
H         -1.87878       -1.15489        2.12613
H         -2.10724       -2.43777        3.36136
H         -2.70432       -0.79477        3.65110

--Link1--
%chk=JID_8363.chk
%mem=8GB
%nprocshared=4
# B3LYP/6-311++G(d,p) empiricaldispersion=gd3bj scf=xqc pop=npa geom=check

CID_143128508_JID_8363_Energie_neutraal

0 1

--Link1--
%chk=JID_8363.chk
%mem=8GB
%nprocshared=4
# B3LYP/6-311++G(d,p) empiricaldispersion=gd3bj scf=xqc pop=npa geom=check

CID_143128508_JID_8363_Energie_kation

1 2

--Link1--
%chk=JID_8363.chk
%mem=8GB
%nprocshared=4
# B3LYP/6-311++G(d,p) empiricaldispersion=gd3bj scf=xqc pop=npa geom=check

CID_143128508_JID_8363_Energie_anion

-1 2
