%chk=JID_5871.chk
%mem=8GB
%nprocshared=4
# opt freq B3LYP/6-31G(d) empiricaldispersion=gd3bj scf=xqc

CID_65959326_JID_5871_neutraal

0 1
C          2.49200        0.00400       -0.01400
C          0.98509        0.03177       -0.05688
C          0.21761       -1.15885       -0.12322
C         -1.17806       -1.03824       -0.09839
C         -1.80844        0.21588       -0.07096
C         -1.04048        1.37915       -0.04657
C          0.34818        1.28577       -0.03624
C         -3.29130        0.25900       -0.06771
O         -4.03867       -0.70078       -0.08904
O         -3.77771        1.51338       -0.03952
N          0.88478       -2.40785       -0.09947
C          0.43085       -3.77023       -0.14089
C         -0.64233       -4.21202        0.86193
N         -1.32341       -4.95193       -0.22969
C         -0.57252       -4.16026       -1.23408
H          2.84016       -0.62787        0.80956
H          2.88979       -0.37281       -0.96163
H          2.91002        1.00342        0.14792
H         -1.81400       -1.91736       -0.11591
H         -1.50982        2.35925       -0.02558
H          0.93515        2.20151       -0.00149
H         -4.74900        1.38117       -0.04015
H          1.81708       -2.32515       -0.49557
H          1.30041       -4.44287       -0.12002
H         -0.27555       -4.85292        1.67111
H         -1.26312       -3.43634        1.31729
H         -1.09450       -5.94570       -0.24504
H         -1.16342       -3.35766       -1.68410
H         -0.15255       -4.75785       -2.05018

--Link1--
%chk=JID_5871.chk
%mem=8GB
%nprocshared=4
# B3LYP/6-311++G(d,p) empiricaldispersion=gd3bj scf=xqc pop=npa geom=check

CID_65959326_JID_5871_Energie_neutraal

0 1

--Link1--
%chk=JID_5871.chk
%mem=8GB
%nprocshared=4
# B3LYP/6-311++G(d,p) empiricaldispersion=gd3bj scf=xqc pop=npa geom=check

CID_65959326_JID_5871_Energie_kation

1 2

--Link1--
%chk=JID_5871.chk
%mem=8GB
%nprocshared=4
# B3LYP/6-311++G(d,p) empiricaldispersion=gd3bj scf=xqc pop=npa geom=check

CID_65959326_JID_5871_Energie_anion

-1 2
