%chk=JID_6582.chk
%mem=8GB
%nprocshared=4
# opt freq B3LYP/6-31G(d) empiricaldispersion=gd3bj scf=xqc

CID_115287789_JID_6582_neutraal

0 1
C          0.94312        0.08213       -0.00432
C          1.01632       -0.20499        1.49016
N          1.60709        0.88889        2.25994
C          1.12945        0.93409        3.65997
C          1.35848       -0.29526        4.59984
C          2.76839       -0.41826        5.13283
C          3.60226        0.55692        5.65275
C          4.86126        0.03738        6.07035
C          4.94283       -1.32334        5.88835
S          3.50648       -1.97011        5.22806
N          0.44336       -0.21551        5.75550
C          3.04579        1.18539        2.09637
C          3.92736       -0.01994        1.74248
C          3.29384        2.31872        1.06144
O          2.84243        3.59709        1.52414
C          1.53204        3.91516        1.07539
H          0.45250        1.04151       -0.19958
H          0.35496       -0.69646       -0.50202
H          1.92824        0.09251       -0.47582
H         -0.02155       -0.35471        1.81618
H          1.52609       -1.15785        1.66935
H          1.49659        1.85274        4.13742
H          0.04327        1.09647        3.59430
H          1.08377       -1.20307        4.05016
H          3.33021        1.60376        5.71756
H          5.66433        0.63278        6.48804
H          5.77518       -1.97386        6.12064
H          0.61136       -1.02954        6.34701
H          0.69820        0.59327        6.32050
H          3.42365        1.58936        3.04269
H          3.77455       -0.35989        0.71431
H          4.98599        0.24599        1.84135
H          3.74702       -0.86619        2.40790
H          4.37635        2.42726        0.92341
H          2.88257        2.08901        0.07298
H          1.48350        3.89602       -0.01795
H          0.78754        3.23724        1.49676
H          1.29528        4.92891        1.40997

--Link1--
%chk=JID_6582.chk
%mem=8GB
%nprocshared=4
# B3LYP/6-311++G(d,p) empiricaldispersion=gd3bj scf=xqc pop=npa geom=check

CID_115287789_JID_6582_Energie_neutraal

0 1

--Link1--
%chk=JID_6582.chk
%mem=8GB
%nprocshared=4
# B3LYP/6-311++G(d,p) empiricaldispersion=gd3bj scf=xqc pop=npa geom=check

CID_115287789_JID_6582_Energie_kation

1 2

--Link1--
%chk=JID_6582.chk
%mem=8GB
%nprocshared=4
# B3LYP/6-311++G(d,p) empiricaldispersion=gd3bj scf=xqc pop=npa geom=check

CID_115287789_JID_6582_Energie_anion

-1 2
