%chk=JID_9194.chk
%mem=8GB
%nprocshared=4
# opt freq B3LYP/6-31G(d) empiricaldispersion=gd3bj scf=xqc

CID_62834205_JID_9194_neutraal

0 1
C          0.92915        0.06934       -0.01311
C          0.46929       -0.50703        1.31966
N          0.88785        0.38971        2.39769
C          0.51064       -0.03479        3.78295
C          1.06618       -1.44194        4.05405
C          1.18998        1.00012        4.69362
C         -1.04778        0.04377        3.98235
O         -1.82052        0.41151        3.08905
N         -1.66509       -0.28860        5.15173
C         -1.18594       -0.63973        6.47992
C         -1.36226        0.50193        7.49806
C         -2.85735        0.82949        7.66640
C         -0.78115        0.14450        8.89284
N          0.65856        0.26630        9.14301
C          1.50047       -0.78438        8.58121
C          2.91224       -0.71903        9.16864
C          3.53178        0.65851        8.95563
C          2.60338        1.74675        9.48404
C          1.19222        1.60951        8.90787
H          0.49566        1.06002       -0.18740
H          0.61614       -0.58427       -0.83380
H          2.02015        0.15879       -0.05278
H         -0.61613       -0.63041        1.28642
H          0.91759       -1.49947        1.43122
H          1.89656        0.52003        2.34390
H          2.06383       -1.56869        3.61560
H          1.18996       -1.65279        5.11776
H          0.41173       -2.21764        3.64108
H          0.77925        2.00392        4.53009
H          1.05459        0.77120        5.75010
H          2.27208        1.04478        4.52008
H         -2.66870       -0.18591        5.04915
H         -1.76548       -1.51563        6.79353
H         -0.15319       -0.94892        6.41720
H         -0.88378        1.41011        7.11504
H         -3.41740       -0.04404        8.01752
H         -2.99923        1.63696        8.39313
H         -3.30305        1.16622        6.72535
H         -1.26431        0.78979        9.63945
H         -1.10494       -0.86874        9.16731
H          1.58100       -0.69306        7.49531
H          1.07996       -1.77184        8.80365
H          3.54312       -1.48332        8.70074
H          2.87728       -0.94459       10.24196
H          4.50342        0.71605        9.45817
H          3.71137        0.81823        7.88521
H          2.55916        1.68696       10.57898
H          3.01028        2.73319        9.23431
H          0.55456        2.36006        9.39028
H          1.21723        1.84287        7.83775

--Link1--
%chk=JID_9194.chk
%mem=8GB
%nprocshared=4
# B3LYP/6-311++G(d,p) empiricaldispersion=gd3bj scf=xqc pop=npa geom=check

CID_62834205_JID_9194_Energie_neutraal

0 1

--Link1--
%chk=JID_9194.chk
%mem=8GB
%nprocshared=4
# B3LYP/6-311++G(d,p) empiricaldispersion=gd3bj scf=xqc pop=npa geom=check

CID_62834205_JID_9194_Energie_kation

1 2

--Link1--
%chk=JID_9194.chk
%mem=8GB
%nprocshared=4
# B3LYP/6-311++G(d,p) empiricaldispersion=gd3bj scf=xqc pop=npa geom=check

CID_62834205_JID_9194_Energie_anion

-1 2
