%chk=JID_9266.chk
%mem=8GB
%nprocshared=4
# opt freq B3LYP/6-31G(d) empiricaldispersion=gd3bj scf=xqc

CID_113056754_JID_9266_neutraal

0 1
C          0.95696        0.08219       -0.03732
C          1.12444       -1.07316       -0.99608
S          1.34012       -2.64698       -0.18038
O          0.28843       -2.82910        0.79636
O          1.59172       -3.63233       -1.20665
N          2.79323       -2.47276        0.63542
C          2.78675       -2.11016        2.06699
C          2.55114       -3.32300        2.98673
N          3.59283       -4.36210        2.86682
C          4.85529       -4.15436        3.62680
C          5.09329       -5.30330        4.63425
C          6.14615       -6.35329        4.27742
C          7.57353       -5.91569        4.59023
C          8.15359       -4.88896        3.62535
C          7.35689       -3.59248        3.50686
C          6.04430       -3.76230        2.73857
C          3.45452       -5.47849        2.04625
O          4.41437       -6.13865        1.65165
C          2.05965       -5.90750        1.66868
H          0.15916       -0.10521        0.68773
H          0.70768        0.99519       -0.58726
H          1.88108        0.27340        0.51577
H          0.22738       -1.17532       -1.61626
H          1.97999       -0.92058       -1.66068
H          3.48419       -3.17672        0.35847
H          3.75621       -1.65268        2.29144
H          2.03154       -1.34258        2.26181
H          2.52335       -2.98988        4.03081
H          1.56863       -3.74770        2.78115
H          4.66234       -3.27567        4.25928
H          5.36871       -4.86098        5.60143
H          4.14184       -5.81885        4.82212
H          6.07314       -6.67878        3.23776
H          5.93893       -7.24302        4.88635
H          8.21713       -6.80436        4.55942
H          7.63079       -5.53426        5.61677
H          8.26926       -5.34288        2.63329
H          9.16675       -4.64240        3.96705
H          7.97938       -2.87703        2.95471
H          7.18382       -3.15179        4.49593
H          6.18544       -4.46226        1.90934
H          5.80585       -2.80070        2.26656
H          2.08456       -6.95957        1.36707
H          1.38104       -5.83877        2.52218
H          1.69213       -5.32045        0.83084

--Link1--
%chk=JID_9266.chk
%mem=8GB
%nprocshared=4
# B3LYP/6-311++G(d,p) empiricaldispersion=gd3bj scf=xqc pop=npa geom=check

CID_113056754_JID_9266_Energie_neutraal

0 1

--Link1--
%chk=JID_9266.chk
%mem=8GB
%nprocshared=4
# B3LYP/6-311++G(d,p) empiricaldispersion=gd3bj scf=xqc pop=npa geom=check

CID_113056754_JID_9266_Energie_kation

1 2

--Link1--
%chk=JID_9266.chk
%mem=8GB
%nprocshared=4
# B3LYP/6-311++G(d,p) empiricaldispersion=gd3bj scf=xqc pop=npa geom=check

CID_113056754_JID_9266_Energie_anion

-1 2
