%chk=JID_10483.chk
%mem=8GB
%nprocshared=4
# opt freq B3LYP/6-31G(d) empiricaldispersion=gd3bj scf=xqc

CID_62001465_JID_10483_neutraal

0 1
C          2.54100       -1.13900        0.05100
C          1.20833       -0.45648        0.15041
C          0.16669       -1.04242        0.88809
C         -1.10048       -0.44472        0.99323
C         -1.32301        0.72888        0.25924
C         -0.29865        1.31214       -0.50635
C          0.96200        0.72193       -0.55630
S         -2.88506        1.59010        0.28691
O         -3.32356        1.69552       -1.08927
O         -3.72291        0.97964        1.30479
N         -2.42171        3.12977        0.86413
C         -1.96155        3.20719        2.26260
C         -3.15675        4.26173        0.36749
C         -2.40417        5.18552       -0.37273
C         -2.98891        6.34612       -0.87650
C         -4.33365        6.59867       -0.63508
C         -5.08688        5.69534        0.11600
C         -4.50980        4.52497        0.64465
C         -5.39719        3.59844        1.42523
N         -2.11261       -1.17710        1.62604
H          2.77152       -1.68020        0.97466
H          2.53788       -1.84670       -0.78366
H          3.34262       -0.40966       -0.10613
H          0.34517       -1.99632        1.38211
H         -0.48855        2.22039       -1.07506
H          1.74244        1.17642       -1.16270
H         -1.12860        2.51927        2.43238
H         -1.59055        4.21297        2.48796
H         -2.76406        2.97259        2.96591
H         -1.35281        4.99318       -0.56975
H         -2.39729        7.04571       -1.46043
H         -4.80042        7.49622       -1.03283
H         -6.14009        5.91090        0.28782
H         -5.71727        2.76296        0.79612
H         -4.89691        3.22253        2.31999
H         -6.29786        4.11591        1.77467
H         -1.80856       -1.77828        2.38395
H         -2.94771       -0.63258        1.86687

--Link1--
%chk=JID_10483.chk
%mem=8GB
%nprocshared=4
# B3LYP/6-311++G(d,p) empiricaldispersion=gd3bj scf=xqc pop=npa geom=check

CID_62001465_JID_10483_Energie_neutraal

0 1

--Link1--
%chk=JID_10483.chk
%mem=8GB
%nprocshared=4
# B3LYP/6-311++G(d,p) empiricaldispersion=gd3bj scf=xqc pop=npa geom=check

CID_62001465_JID_10483_Energie_kation

1 2

--Link1--
%chk=JID_10483.chk
%mem=8GB
%nprocshared=4
# B3LYP/6-311++G(d,p) empiricaldispersion=gd3bj scf=xqc pop=npa geom=check

CID_62001465_JID_10483_Energie_anion

-1 2
