%chk=JID_8152.chk
%mem=8GB
%nprocshared=4
# opt freq B3LYP/6-31G(d) empiricaldispersion=gd3bj scf=xqc

CID_114961202_JID_8152_neutraal

0 1
C         -2.53900       -0.00300       -0.12500
C         -1.09649       -0.28672        0.30625
C         -0.30926        1.02807        0.16082
C          1.17901        0.86077        0.43064
N          1.80592       -0.18778       -0.35231
C          1.10723       -1.46419       -0.22202
C         -0.41893       -1.43434       -0.49226
C         -0.95531       -2.85224       -0.17507
N         -2.30549       -3.11732       -0.65726
C          2.32915        0.11818       -1.70045
C          1.35836        0.17189       -2.87830
C          3.39697        1.24304       -1.67168
O          4.58772        0.97335       -1.46829
N          3.11079        2.56311       -1.83724
C          1.86977        3.26119       -2.12846
C          1.63640        4.47371       -1.21766
O          2.26681        5.66149       -1.69918
C          3.61366        5.81411       -1.27842
H         -2.89194        0.94862        0.28911
H         -2.62781        0.05400       -1.21490
H         -3.22927       -0.76339        0.24345
H         -1.10260       -0.55654        1.37090
H         -0.47185        1.44668       -0.83633
H         -0.70853        1.76823        0.86645
H          1.30348        0.60531        1.49202
H          1.69317        1.81868        0.32535
H          1.27097       -1.82035        0.80490
H          1.58327       -2.22088       -0.85930
H         -0.57540       -1.24939       -1.56170
H         -0.29922       -3.59183       -0.65005
H         -0.91288       -3.04334        0.90387
H         -2.47384       -4.12381       -0.63708
H         -2.98440       -2.72977       -0.00490
H          2.96161       -0.75009       -1.94969
H          0.43777        0.71333       -2.66017
H          1.82287        0.64338       -3.75101
H          1.06391       -0.84082       -3.17628
H          3.96175        3.10943       -1.85088
H          1.91616        3.56757       -3.17812
H          1.03686        2.57880       -1.99983
H          0.56262        4.69251       -1.22460
H          1.91528        4.27184       -0.17684
H          3.72131        5.62916       -0.20545
H          4.27016        5.15500       -1.84942
H          3.91703        6.84487       -1.48223

--Link1--
%chk=JID_8152.chk
%mem=8GB
%nprocshared=4
# B3LYP/6-311++G(d,p) empiricaldispersion=gd3bj scf=xqc pop=npa geom=check

CID_114961202_JID_8152_Energie_neutraal

0 1

--Link1--
%chk=JID_8152.chk
%mem=8GB
%nprocshared=4
# B3LYP/6-311++G(d,p) empiricaldispersion=gd3bj scf=xqc pop=npa geom=check

CID_114961202_JID_8152_Energie_kation

1 2

--Link1--
%chk=JID_8152.chk
%mem=8GB
%nprocshared=4
# B3LYP/6-311++G(d,p) empiricaldispersion=gd3bj scf=xqc pop=npa geom=check

CID_114961202_JID_8152_Energie_anion

-1 2
