%chk=JID_9904.chk
%mem=8GB
%nprocshared=4
# opt freq B3LYP/6-31G(d) empiricaldispersion=gd3bj scf=xqc

CID_56718615_JID_9904_neutraal

0 1
C          1.01975        0.03982        0.08958
C          0.99754        0.90050       -1.18660
C          1.62053        0.04956       -2.32283
C         -0.46423        1.22984       -1.61958
C         -1.34663        1.92611       -0.62045
C         -1.95575        3.09712       -0.84649
C          1.88290        2.17972       -1.04332
N          1.51130        3.08506        0.05982
C          2.38282        2.95312        1.24143
C          3.79470        3.51706        1.03575
N          3.81776        4.78648        0.34211
C          2.85554        5.12043       -0.58043
O          3.11084        5.97348       -1.42848
C          1.44826        4.51309       -0.39801
C          0.67163        5.38501        0.59988
C          0.12344        6.60555       -0.10956
O         -0.74408        6.51248       -0.97839
N          0.58740        7.84187        0.22759
C          1.64536        8.17321        1.14859
H          0.44593       -0.88331       -0.05016
H          0.59135        0.56120        0.95043
H          2.04428       -0.24671        0.35194
H          1.05562       -0.87596       -2.48232
H          1.63109        0.60030       -3.27030
H          2.65386       -0.23073       -2.08853
H         -0.43280        1.81206       -2.55080
H         -0.97258        0.29017       -1.87713
H         -1.51373        1.42943        0.33172
H         -2.58639        3.55309       -0.08996
H         -1.82646        3.64381       -1.77596
H          2.93416        1.87766       -0.95678
H          1.83112        2.70877       -2.00539
H          1.91077        3.47777        2.08116
H          2.45345        1.90976        1.56583
H          4.29581        3.65746        1.99864
H          4.40320        2.82424        0.44515
H          4.71737        5.20590        0.14102
H          0.94455        4.54521       -1.37264
H         -0.19948        4.84713        0.99442
H          1.28079        5.66245        1.46389
H          0.19267        8.58323       -0.33973
H          2.57005        7.68217        0.83931
H          1.78325        9.25691        1.14434
H          1.36802        7.84259        2.15248

--Link1--
%chk=JID_9904.chk
%mem=8GB
%nprocshared=4
# B3LYP/6-311++G(d,p) empiricaldispersion=gd3bj scf=xqc pop=npa geom=check

CID_56718615_JID_9904_Energie_neutraal

0 1

--Link1--
%chk=JID_9904.chk
%mem=8GB
%nprocshared=4
# B3LYP/6-311++G(d,p) empiricaldispersion=gd3bj scf=xqc pop=npa geom=check

CID_56718615_JID_9904_Energie_kation

1 2

--Link1--
%chk=JID_9904.chk
%mem=8GB
%nprocshared=4
# B3LYP/6-311++G(d,p) empiricaldispersion=gd3bj scf=xqc pop=npa geom=check

CID_56718615_JID_9904_Energie_anion

-1 2
