%chk=JID_5647.chk
%mem=8GB
%nprocshared=4
# opt freq B3LYP/6-31G(d) empiricaldispersion=gd3bj scf=xqc

CID_4616190_JID_5647_neutraal

0 1
C          1.09635        0.02535        0.00863
C          0.34740        0.08896       -1.33219
C          0.70960       -1.15579       -2.14996
C         -1.15612        0.17092       -1.04413
O          0.83525        1.29626       -1.96316
C          0.34791        1.69500       -3.17153
O         -0.44641        1.04552       -3.83963
N          0.90893        2.87982       -3.56517
C          1.82600        3.67610       -2.77751
C          1.96811        4.99453       -3.52877
C          1.52530        4.65927       -4.95241
C          0.42621        3.61939       -4.73973
C         -0.92437        4.38800       -4.57425
O         -1.46726        4.73984       -5.66470
O         -1.29265        4.63071       -3.38687
H          0.81365       -0.85730        0.59193
H          0.89276        0.91832        0.61128
H          2.18072        0.00173       -0.15140
H          0.49757       -2.07437       -1.59216
H          0.14930       -1.20802       -3.08811
H          1.77195       -1.14858       -2.41866
H         -1.40414        1.11047       -0.53760
H         -1.75180        0.14225       -1.96138
H         -1.48696       -0.66227       -0.41467
H          2.77929        3.13956       -2.72377
H          1.44368        3.81862       -1.76182
H          1.29857        5.74674       -3.09531
H          2.98621        5.39203       -3.48520
H          1.20506        5.54919       -5.50266
H          2.36436        4.20675       -5.49547
H          0.33798        2.93258       -5.58919

--Link1--
%chk=JID_5647.chk
%mem=8GB
%nprocshared=4
# B3LYP/6-311++G(d,p) empiricaldispersion=gd3bj scf=xqc pop=npa geom=check

CID_4616190_JID_5647_Energie_neutraal

0 1

--Link1--
%chk=JID_5647.chk
%mem=8GB
%nprocshared=4
# B3LYP/6-311++G(d,p) empiricaldispersion=gd3bj scf=xqc pop=npa geom=check

CID_4616190_JID_5647_Energie_kation

1 2

--Link1--
%chk=JID_5647.chk
%mem=8GB
%nprocshared=4
# B3LYP/6-311++G(d,p) empiricaldispersion=gd3bj scf=xqc pop=npa geom=check

CID_4616190_JID_5647_Energie_anion

-1 2
