%chk=JID_1661.chk
%mem=8GB
%nprocshared=4
# opt freq B3LYP/6-31G(d) empiricaldispersion=gd3bj scf=xqc

CID_153364104_JID_1661_neutraal

0 1
C          1.05260        0.02288       -0.08191
C         -0.28446       -0.26611       -0.77042
C         -0.04056       -1.12108       -2.02009
C         -1.27925       -0.84741        0.21804
C         -1.76148       -2.10147        0.22497
N         -2.70921       -2.66777        1.03926
C         -1.86066        0.14523        1.17016
N         -1.78860        0.23429        2.44798
C         -0.99215       -0.71202        3.22919
C          0.15696        0.05761        3.87650
C         -1.89032       -1.31506        4.30583
H          0.93226        0.75239        0.72536
H          1.77417        0.44156       -0.79201
H          1.48813       -0.88756        0.34494
H         -0.69025        0.69045       -1.12750
H          0.44959       -2.06956       -1.77409
H         -0.98018       -1.34073       -2.53867
H          0.60712       -0.59019       -2.72682
H         -1.38966       -2.83181       -0.49107
H         -3.29490       -3.36725        0.58958
H         -3.24182       -2.00111        1.59775
H         -2.43486        0.93943        0.66009
H         -0.56413       -1.52251        2.63253
H          0.80755        0.49939        3.11539
H         -0.21365        0.87460        4.50573
H          0.76728       -0.60375        4.50025
H         -1.33046       -2.01706        4.93247
H         -2.30993       -0.53864        4.95549
H         -2.73060       -1.85591        3.85988

--Link1--
%chk=JID_1661.chk
%mem=8GB
%nprocshared=4
# B3LYP/6-311++G(d,p) empiricaldispersion=gd3bj scf=xqc pop=npa geom=check

CID_153364104_JID_1661_Energie_neutraal

0 1

--Link1--
%chk=JID_1661.chk
%mem=8GB
%nprocshared=4
# B3LYP/6-311++G(d,p) empiricaldispersion=gd3bj scf=xqc pop=npa geom=check

CID_153364104_JID_1661_Energie_kation

1 2

--Link1--
%chk=JID_1661.chk
%mem=8GB
%nprocshared=4
# B3LYP/6-311++G(d,p) empiricaldispersion=gd3bj scf=xqc pop=npa geom=check

CID_153364104_JID_1661_Energie_anion

-1 2
