%chk=JID_7494.chk
%mem=8GB
%nprocshared=4
# opt freq B3LYP/6-31G(d) empiricaldispersion=gd3bj scf=xqc

CID_79104330_JID_7494_neutraal

0 1
C          1.05213        0.08512       -0.00614
C          1.09972       -0.85548        1.18792
N          1.04788       -0.14392        2.46604
C         -0.25651        0.35922        2.87386
C          2.25418        0.29939        3.01127
O          3.33997        0.02064        2.49180
C          2.22899        1.11427        4.29259
N          1.99187        2.52885        4.05574
C          0.92375        3.24588        4.52414
C          1.09237        4.55713        4.13722
C          2.32306        4.65374        3.42182
C          2.85346        3.37356        3.40631
C          2.95305        5.88622        2.82669
C          2.66082        6.20588        1.38119
C          2.36255        5.15568        0.33693
C          1.27532        6.09446        0.78826
O          2.61447        7.04900        3.58598
H          0.11966        0.65830       -0.02141
H          1.11690       -0.48263       -0.93941
H          1.88215        0.79870        0.01980
H          0.26296       -1.56193        1.15042
H          2.01808       -1.45146        1.13915
H         -1.03088       -0.36527        2.60524
H         -0.30605        0.51715        3.95131
H         -0.44501        1.30647        2.36096
H          1.49366        0.72980        5.00362
H          3.20776        1.03345        4.78088
H          0.13592        2.78007        5.10115
H          0.41158        5.36619        4.36743
H          3.77901        3.00301        2.98069
H          4.04080        5.77753        2.92080
H          3.26500        7.05017        1.05975
H          2.77945        5.29865       -0.65396
H          2.28604        4.11531        0.63001
H          0.47207        5.67878        1.38473
H          0.95746        6.86971        0.10005
H          1.66462        7.18629        3.44223

--Link1--
%chk=JID_7494.chk
%mem=8GB
%nprocshared=4
# B3LYP/6-311++G(d,p) empiricaldispersion=gd3bj scf=xqc pop=npa geom=check

CID_79104330_JID_7494_Energie_neutraal

0 1

--Link1--
%chk=JID_7494.chk
%mem=8GB
%nprocshared=4
# B3LYP/6-311++G(d,p) empiricaldispersion=gd3bj scf=xqc pop=npa geom=check

CID_79104330_JID_7494_Energie_kation

1 2

--Link1--
%chk=JID_7494.chk
%mem=8GB
%nprocshared=4
# B3LYP/6-311++G(d,p) empiricaldispersion=gd3bj scf=xqc pop=npa geom=check

CID_79104330_JID_7494_Energie_anion

-1 2
