%chk=JID_6554.chk
%mem=8GB
%nprocshared=4
# opt freq B3LYP/6-31G(d) empiricaldispersion=gd3bj scf=xqc

CID_98014253_JID_6554_neutraal

0 1
C          0.93557        0.02708       -0.07152
C          0.82434       -1.47461       -0.27644
C          1.11186       -2.29244        0.98575
C          0.22290       -1.99080        2.20096
C         -1.28154       -2.01428        1.91880
N         -1.67256       -3.32252        1.41244
C         -2.96149       -3.52421        0.88366
C         -3.37015       -4.85922        0.63808
C         -4.65881       -5.12618        0.16503
C         -5.50246       -4.07940       -0.22278
C         -5.06277       -2.76056       -0.08547
C         -3.80241       -2.48994        0.46112
C         -6.84153       -4.41483       -0.79079
O         -7.20979       -5.58645       -0.84673
C         -7.71830       -3.29896       -1.29700
N         -2.53913       -5.92921        1.05671
H          0.18202        0.39989        0.62771
H          0.79071        0.54765       -1.02364
H          1.92452        0.29606        0.31308
H         -0.16971       -1.71643       -0.66853
H          1.53959       -1.77519       -1.05176
H          1.02206       -3.35621        0.73231
H          2.15822       -2.14006        1.27908
H          0.45753       -2.72084        2.98620
H          0.48816       -1.00758        2.60781
H         -1.82640       -1.80057        2.84592
H         -1.51299       -1.21713        1.20714
H         -1.49455       -4.06737        2.08927
H         -4.99556       -6.15552        0.06611
H         -5.67950       -1.91857       -0.38492
H         -3.50877       -1.45008        0.55656
H         -8.00583       -2.64024       -0.47363
H         -7.20512       -2.73987       -2.08404
H         -8.62964       -3.72504       -1.72800
H         -2.76488       -6.79900        0.58237
H         -1.56423       -5.67378        0.90188

--Link1--
%chk=JID_6554.chk
%mem=8GB
%nprocshared=4
# B3LYP/6-311++G(d,p) empiricaldispersion=gd3bj scf=xqc pop=npa geom=check

CID_98014253_JID_6554_Energie_neutraal

0 1

--Link1--
%chk=JID_6554.chk
%mem=8GB
%nprocshared=4
# B3LYP/6-311++G(d,p) empiricaldispersion=gd3bj scf=xqc pop=npa geom=check

CID_98014253_JID_6554_Energie_kation

1 2

--Link1--
%chk=JID_6554.chk
%mem=8GB
%nprocshared=4
# B3LYP/6-311++G(d,p) empiricaldispersion=gd3bj scf=xqc pop=npa geom=check

CID_98014253_JID_6554_Energie_anion

-1 2
