%chk=JID_7327.chk
%mem=8GB
%nprocshared=4
# opt freq B3LYP/6-31G(d) empiricaldispersion=gd3bj scf=xqc

CID_92930293_JID_7327_neutraal

0 1
C          1.01171        0.07070       -0.06974
C          0.74942       -1.18455       -0.88677
C          1.07821       -2.47230       -0.13427
N          0.12565       -2.82142        0.93298
C         -0.97930       -3.70148        0.51853
C         -2.33300       -3.55199        1.19169
C         -2.92106       -4.71554        1.73544
C         -4.17169       -4.68434        2.35210
C         -4.87279       -3.48958        2.42543
C         -4.32869       -2.33451        1.86798
C         -3.07150       -2.35176        1.23451
C         -2.56938       -1.07380        0.62885
C          0.61033       -2.68015        2.23375
O          1.58447       -1.96177        2.48429
C         -0.05451       -3.41372        3.37845
C         -0.89262       -2.44838        4.20413
N         -1.75362       -3.17233        5.14164
H          0.40488        0.09917        0.83843
H          0.77525        0.96099       -0.66104
H          2.06488        0.13140        0.22318
H         -0.28606       -1.19480       -1.23579
H          1.37923       -1.14001       -1.78369
H          1.09906       -3.30906       -0.84426
H          2.09840       -2.40946        0.26297
H         -0.60536       -4.72658        0.63393
H         -1.15446       -3.55303       -0.55497
H         -2.39518       -5.66841        1.68984
H         -4.59613       -5.59330        2.77067
H         -5.84837       -3.45615        2.90325
H         -4.90213       -1.41056        1.92147
H         -2.33282       -1.22532       -0.42675
H         -3.32523       -0.28194        0.67302
H         -1.69411       -0.71579        1.17372
H         -0.61690       -4.27860        3.03099
H          0.74448       -3.83656        4.00212
H         -0.23153       -1.78420        4.77272
H         -1.50889       -1.80476        3.57036
H         -2.27298       -2.49395        5.69833
H         -2.46051       -3.67895        4.60506

--Link1--
%chk=JID_7327.chk
%mem=8GB
%nprocshared=4
# B3LYP/6-311++G(d,p) empiricaldispersion=gd3bj scf=xqc pop=npa geom=check

CID_92930293_JID_7327_Energie_neutraal

0 1

--Link1--
%chk=JID_7327.chk
%mem=8GB
%nprocshared=4
# B3LYP/6-311++G(d,p) empiricaldispersion=gd3bj scf=xqc pop=npa geom=check

CID_92930293_JID_7327_Energie_kation

1 2

--Link1--
%chk=JID_7327.chk
%mem=8GB
%nprocshared=4
# B3LYP/6-311++G(d,p) empiricaldispersion=gd3bj scf=xqc pop=npa geom=check

CID_92930293_JID_7327_Energie_anion

-1 2
