%chk=JID_8001.chk
%mem=8GB
%nprocshared=4
# opt freq B3LYP/6-31G(d) empiricaldispersion=gd3bj scf=xqc

CID_141002626_JID_8001_neutraal

0 1
C          1.04204        0.08699        0.02578
C          0.49291       -1.27462       -0.37880
C          0.96051       -2.41882        0.52831
N          0.38113       -2.31314        1.87575
N          1.00213       -3.26565        2.75392
C          0.79566       -2.87287        4.16917
C         -0.62438       -2.51116        4.65572
C         -1.63015       -3.66081        4.77799
C         -1.23831       -4.76910        5.78178
N         -1.30087       -4.30564        7.15364
C          0.01345       -4.14282        7.75467
N         -2.25077       -5.80379        5.68813
C         -1.78982       -7.14370        6.05128
C         -1.92271       -7.46235        7.53459
N          0.53943       -4.58555        2.47822
C          1.65634       -5.46404        2.10530
C          2.53585       -5.83215        3.30206
C          1.06187       -6.73283        1.48998
H          0.64705        0.41276        0.99235
H          0.75860        0.84004       -0.71671
H          2.13477        0.06731        0.08643
H         -0.60284       -1.23527       -0.40376
H          0.82276       -1.48945       -1.40255
H          0.65022       -3.36166        0.06218
H          2.05709       -2.41122        0.57402
H          0.55420       -1.36665        2.21258
H          1.23547       -3.63129        4.82690
H          1.41903       -1.98250        4.33411
H         -0.53036       -2.01985        5.63202
H         -1.05614       -1.74559        3.99940
H         -2.59733       -3.22676        5.07185
H         -1.80933       -4.09336        3.78652
H         -0.25787       -5.17436        5.50858
H         -1.81591       -3.42966        7.20658
H          0.60771       -3.38026        7.24398
H         -0.10167       -3.83160        8.79761
H          0.57015       -5.08563        7.75604
H         -3.01171       -5.52887        6.30575
H         -2.41847       -7.85629        5.50455
H         -0.76425       -7.32792        5.71047
H         -2.94757       -7.29874        7.88455
H         -1.67543       -8.51408        7.71318
H         -1.24788       -6.85820        8.14610
H         -0.00636       -5.00779        3.22468
H          2.27803       -4.98585        1.33773
H          1.94975       -6.29174        4.10568
H          3.31223       -6.54528        3.00387
H          3.04306       -4.95185        3.71021
H          0.44151       -6.49342        0.61886
H          1.85636       -7.40796        1.15375
H          0.44025       -7.27787        2.20973

--Link1--
%chk=JID_8001.chk
%mem=8GB
%nprocshared=4
# B3LYP/6-311++G(d,p) empiricaldispersion=gd3bj scf=xqc pop=npa geom=check

CID_141002626_JID_8001_Energie_neutraal

0 1

--Link1--
%chk=JID_8001.chk
%mem=8GB
%nprocshared=4
# B3LYP/6-311++G(d,p) empiricaldispersion=gd3bj scf=xqc pop=npa geom=check

CID_141002626_JID_8001_Energie_kation

1 2

--Link1--
%chk=JID_8001.chk
%mem=8GB
%nprocshared=4
# B3LYP/6-311++G(d,p) empiricaldispersion=gd3bj scf=xqc pop=npa geom=check

CID_141002626_JID_8001_Energie_anion

-1 2
