%chk=JID_1067.chk
%mem=8GB
%nprocshared=4
# opt freq B3LYP/6-31G(d) empiricaldispersion=gd3bj scf=xqc

CID_144623759_JID_1067_neutraal

0 1
C          0.95585        0.01275       -0.08882
C          0.70753        1.45666        0.06549
C         -0.43532        2.03562       -0.31808
C         -0.76960        3.42060       -0.09362
C         -2.05416        3.81857       -0.17880
C         -2.44623        5.15619        0.19485
C         -1.60046        5.91064        0.90994
C         -0.20649        5.47740        1.25347
C          0.30983        4.40942        0.29879
C         -2.00774        7.27447        1.44330
N         -2.34561        8.40589        1.88577
H          0.15092       -0.50330       -0.62229
H          1.06629       -0.45885        0.89275
H          1.88255       -0.14980       -0.64845
H          1.50731        1.99625        0.55817
H         -1.20915        1.41519       -0.77002
H         -2.85247        3.13436       -0.45553
H         -3.45641        5.48073       -0.03754
H         -0.20090        5.09518        2.28260
H          0.48128        6.33170        1.22663
H          0.69227        4.87815       -0.61796
H          1.17129        3.95220        0.79008

--Link1--
%chk=JID_1067.chk
%mem=8GB
%nprocshared=4
# B3LYP/6-311++G(d,p) empiricaldispersion=gd3bj scf=xqc pop=npa geom=check

CID_144623759_JID_1067_Energie_neutraal

0 1

--Link1--
%chk=JID_1067.chk
%mem=8GB
%nprocshared=4
# B3LYP/6-311++G(d,p) empiricaldispersion=gd3bj scf=xqc pop=npa geom=check

CID_144623759_JID_1067_Energie_kation

1 2

--Link1--
%chk=JID_1067.chk
%mem=8GB
%nprocshared=4
# B3LYP/6-311++G(d,p) empiricaldispersion=gd3bj scf=xqc pop=npa geom=check

CID_144623759_JID_1067_Energie_anion

-1 2
