%chk=JID_7769.chk
%mem=8GB
%nprocshared=4
# opt freq B3LYP/6-31G(d) empiricaldispersion=gd3bj scf=xqc

CID_138926570_JID_7769_neutraal

0 1
C          1.03866       -0.00492        0.09210
C          0.41693       -0.39179        1.45037
C          0.70600        0.78536        2.40872
C         -1.10728       -0.52593        1.28435
N          1.02173       -1.66940        1.99547
C          1.14158       -2.79791        0.99652
C          2.51847       -2.80002        0.31888
O          2.73924       -3.29941       -0.77938
N          3.52857       -2.24807        1.05904
C          0.73090       -2.05892        3.32556
C          1.44399       -1.66777        4.39365
N          1.14901       -2.06740        5.66651
C          0.11437       -2.90077        5.97989
O         -0.12069       -3.23682        7.13516
N         -0.63385       -3.33191        4.92611
C         -0.42829       -2.99863        3.61543
O         -1.15461       -3.44032        2.72761
H          0.65298        0.96113       -0.25548
H          0.80944       -0.73080       -0.69423
H          2.12764        0.08679        0.16387
H          0.35861        1.73519        1.98519
H          0.19676        0.66672        3.37110
H          1.78023        0.88174        2.60356
H         -1.37463       -1.35142        0.61719
H         -1.60430       -0.70213        2.24416
H         -1.53763        0.38948        0.86176
H          1.06328       -3.77385        1.49075
H          0.36094       -2.74378        0.23266
H          3.25921       -1.63983        1.82358
H          4.42921       -2.13276        0.61701
H          2.30007       -1.00965        4.29254
H          1.71005       -1.75045        6.44906
H         -1.40160       -3.95159        5.12899

--Link1--
%chk=JID_7769.chk
%mem=8GB
%nprocshared=4
# B3LYP/6-311++G(d,p) empiricaldispersion=gd3bj scf=xqc pop=npa geom=check

CID_138926570_JID_7769_Energie_neutraal

0 1

--Link1--
%chk=JID_7769.chk
%mem=8GB
%nprocshared=4
# B3LYP/6-311++G(d,p) empiricaldispersion=gd3bj scf=xqc pop=npa geom=check

CID_138926570_JID_7769_Energie_kation

1 2

--Link1--
%chk=JID_7769.chk
%mem=8GB
%nprocshared=4
# B3LYP/6-311++G(d,p) empiricaldispersion=gd3bj scf=xqc pop=npa geom=check

CID_138926570_JID_7769_Energie_anion

-1 2
