%chk=JID_9137.chk
%mem=8GB
%nprocshared=4
# opt freq B3LYP/6-31G(d) empiricaldispersion=gd3bj scf=xqc

CID_119037772_JID_9137_neutraal

0 1
C          0.90467       -0.02235       -0.02033
C          0.10179       -1.22329        0.49607
C         -1.40738       -0.94116        0.50106
C         -1.95162       -0.79297       -0.91224
N         -1.51051       -1.84189       -1.80505
C         -0.27904       -2.44060       -1.71363
O          0.21273       -2.97653       -2.70478
C          0.35261       -2.51228       -0.30775
N          1.77362       -2.83153       -0.41241
C          2.49731       -3.74546        0.29428
O          3.68581       -3.91254        0.01259
C          1.81722       -4.57293        1.38936
O          1.11824       -3.84377        2.38407
C          1.84473       -3.28562        3.39900
C          1.07367       -2.73921        4.42974
C          1.68078       -2.12838        5.52821
C          3.06906       -2.05600        5.60047
C          3.84444       -2.59283        4.57440
C          3.23535       -3.20600        3.47447
H          0.62852        0.88751        0.52326
H          0.74332        0.15882       -1.08732
H          1.97796       -0.17860        0.13112
H          0.41350       -1.38537        1.53423
H         -1.92134       -1.77386        0.99876
H         -1.63178       -0.04001        1.08319
H         -1.63110        0.15821       -1.35060
H         -3.04618       -0.80042       -0.90737
H         -1.86621       -1.83091       -2.75483
H         -0.15507       -3.34650        0.18962
H          2.28762       -2.41456       -1.18113
H          1.08580       -5.21724        0.88652
H          2.54436       -5.26126        1.83855
H         -0.01081       -2.79410        4.37912
H          1.07054       -1.71180        6.32492
H          3.54737       -1.58170        6.45339
H          4.92904       -2.53395        4.62625
H          3.88251       -3.60140        2.69780

--Link1--
%chk=JID_9137.chk
%mem=8GB
%nprocshared=4
# B3LYP/6-311++G(d,p) empiricaldispersion=gd3bj scf=xqc pop=npa geom=check

CID_119037772_JID_9137_Energie_neutraal

0 1

--Link1--
%chk=JID_9137.chk
%mem=8GB
%nprocshared=4
# B3LYP/6-311++G(d,p) empiricaldispersion=gd3bj scf=xqc pop=npa geom=check

CID_119037772_JID_9137_Energie_kation

1 2

--Link1--
%chk=JID_9137.chk
%mem=8GB
%nprocshared=4
# B3LYP/6-311++G(d,p) empiricaldispersion=gd3bj scf=xqc pop=npa geom=check

CID_119037772_JID_9137_Energie_anion

-1 2
