%chk=JID_7239.chk
%mem=8GB
%nprocshared=4
# opt freq B3LYP/6-31G(d) empiricaldispersion=gd3bj scf=xqc

CID_64965204_JID_7239_neutraal

0 1
C          1.01961        0.02430       -0.09500
C          0.42796       -1.20381        0.59716
C          0.83131       -1.20794        2.07432
C         -1.10632       -1.25954        0.47880
C         -1.66199       -1.35954       -0.94702
C         -1.17032       -2.55193       -1.77690
C         -1.40548       -3.94462       -1.15405
C         -2.87778       -4.21011       -0.81836
N         -0.81773       -5.00910       -2.01006
C         -1.47733       -5.30405       -3.28984
C         -1.45010       -6.77189       -3.68255
C         -0.22454       -7.03171       -4.50875
O         -0.26082       -7.59127       -5.59932
N          0.95611       -6.58337       -3.99441
C          1.18983       -6.46628       -2.57014
C          0.52625       -5.32834       -1.77461
O          1.14587       -4.85197       -0.81653
H          0.58576        0.94984        0.29830
H          0.84234       -0.00376       -1.17436
H          2.10377        0.06958        0.05482
H          0.86091       -2.09970        0.13812
H          0.43661       -0.33026        2.59754
H          0.45148       -2.10307        2.57828
H          1.92133       -1.20415        2.18025
H         -1.48153       -2.10552        1.06722
H         -1.53457       -0.36214        0.94493
H         -2.75693       -1.39047       -0.88822
H         -1.42724       -0.43808       -1.49327
H         -1.66773       -2.50552       -2.75459
H         -0.10145       -2.42492       -1.98898
H         -0.87671       -3.97924       -0.19481
H         -3.54163       -3.98379       -1.65835
H         -3.02942       -5.25745       -0.53575
H         -3.20258       -3.59162        0.02455
H         -2.52752       -5.01134       -3.21935
H         -1.01858       -4.66259       -4.05244
H         -2.31701       -6.99122       -4.31731
H         -1.48364       -7.44789       -2.82253
H          1.74597       -6.85463       -4.56902
H          2.27334       -6.34278       -2.45920
H          0.90758       -7.41306       -2.09571

--Link1--
%chk=JID_7239.chk
%mem=8GB
%nprocshared=4
# B3LYP/6-311++G(d,p) empiricaldispersion=gd3bj scf=xqc pop=npa geom=check

CID_64965204_JID_7239_Energie_neutraal

0 1

--Link1--
%chk=JID_7239.chk
%mem=8GB
%nprocshared=4
# B3LYP/6-311++G(d,p) empiricaldispersion=gd3bj scf=xqc pop=npa geom=check

CID_64965204_JID_7239_Energie_kation

1 2

--Link1--
%chk=JID_7239.chk
%mem=8GB
%nprocshared=4
# B3LYP/6-311++G(d,p) empiricaldispersion=gd3bj scf=xqc pop=npa geom=check

CID_64965204_JID_7239_Energie_anion

-1 2
