%chk=JID_6047.chk
%mem=8GB
%nprocshared=4
# opt freq B3LYP/6-31G(d) empiricaldispersion=gd3bj scf=xqc

CID_62452321_JID_6047_neutraal

0 1
C          1.06170       -0.05575        0.05555
C          1.05966        1.10069        1.04600
C          1.20097        2.45031        0.38721
C          2.33195        2.76263       -0.38292
C          2.49082        4.01876       -0.98327
C          1.50489        4.97921       -0.79327
C          0.37292        4.68678       -0.02565
C          0.22082        3.43112        0.56117
O          3.64246        4.14029       -1.69858
C          4.03914        5.32820       -2.38787
C          3.12510        5.69399       -3.55672
C          4.39080        6.51103       -1.47160
C          5.30154        6.15200       -0.28803
C          6.64158        5.50100       -0.64880
N          7.46531        6.38532       -1.47507
C          8.76470        5.78338       -1.74634
H          0.27010        0.06319       -0.69201
H          0.89443       -1.00145        0.58110
H          2.01663       -0.13412       -0.47387
H          0.12668        1.06221        1.62171
H          1.87472        0.97424        1.76859
H          3.11454        2.01897       -0.51990
H          1.57219        5.97136       -1.21753
H         -0.39260        5.44554        0.11730
H         -0.66588        3.22848        1.15739
H          4.98004        5.03386       -2.87062
H          2.18277        6.14241       -3.23651
H          3.61789        6.41681       -4.21563
H          2.87616        4.80295       -4.14267
H          4.85694        7.30258       -2.07115
H          3.48220        6.95932       -1.05806
H          5.49294        7.06720        0.28737
H          4.76343        5.47919        0.39071
H          7.16912        5.28115        0.28759
H          6.47406        4.54431       -1.15623
H          6.99693        6.56812       -2.36055
H          8.66362        4.84222       -2.29654
H          9.36198        6.46778       -2.35682
H          9.31879        5.60048       -0.82004

--Link1--
%chk=JID_6047.chk
%mem=8GB
%nprocshared=4
# B3LYP/6-311++G(d,p) empiricaldispersion=gd3bj scf=xqc pop=npa geom=check

CID_62452321_JID_6047_Energie_neutraal

0 1

--Link1--
%chk=JID_6047.chk
%mem=8GB
%nprocshared=4
# B3LYP/6-311++G(d,p) empiricaldispersion=gd3bj scf=xqc pop=npa geom=check

CID_62452321_JID_6047_Energie_kation

1 2

--Link1--
%chk=JID_6047.chk
%mem=8GB
%nprocshared=4
# B3LYP/6-311++G(d,p) empiricaldispersion=gd3bj scf=xqc pop=npa geom=check

CID_62452321_JID_6047_Energie_anion

-1 2
