%chk=JID_2619.chk
%mem=8GB
%nprocshared=4
# opt freq B3LYP/6-31G(d) empiricaldispersion=gd3bj scf=xqc

CID_147277316_JID_2619_neutraal

0 1
C          0.94468        0.07897       -0.02652
C          0.15583        1.33690       -0.36142
C          0.85764        2.23402       -1.38728
C          0.35009        2.07962       -2.83695
C          0.55970        0.66252       -3.39866
C          0.14414        0.55684       -4.86804
C          0.83336        1.60594       -5.73688
C          0.60062        2.98918       -5.17385
C          0.04636        3.96025       -5.92681
C         -0.28699        5.36521       -5.52858
S          0.88590        6.50201       -6.30870
C          1.04142        3.12667       -3.73586
H          1.09725       -0.55604       -0.90220
H          0.41000       -0.50974        0.72584
H          1.92723        0.33368        0.38406
H         -0.85306        1.07210       -0.69671
H          0.03567        1.90509        0.56950
H          0.68112        3.27536       -1.08585
H          1.94396        2.08570       -1.34713
H         -0.72902        2.28967       -2.84158
H         -0.02860       -0.06271       -2.82668
H          1.61440        0.37630       -3.30035
H         -0.94456        0.67354       -4.94466
H          0.38291       -0.44491       -5.24343
H          0.46397        1.52009       -6.76549
H          1.91245        1.41096       -5.77132
H         -0.22612        3.71956       -6.95515
H         -1.29813        5.60933       -5.86979
H         -0.26771        5.52225       -4.44843
H          1.98631        5.97648       -5.75117
H          2.13052        2.99148       -3.69438
H          0.84640        4.12743       -3.34027

--Link1--
%chk=JID_2619.chk
%mem=8GB
%nprocshared=4
# B3LYP/6-311++G(d,p) empiricaldispersion=gd3bj scf=xqc pop=npa geom=check

CID_147277316_JID_2619_Energie_neutraal

0 1

--Link1--
%chk=JID_2619.chk
%mem=8GB
%nprocshared=4
# B3LYP/6-311++G(d,p) empiricaldispersion=gd3bj scf=xqc pop=npa geom=check

CID_147277316_JID_2619_Energie_kation

1 2

--Link1--
%chk=JID_2619.chk
%mem=8GB
%nprocshared=4
# B3LYP/6-311++G(d,p) empiricaldispersion=gd3bj scf=xqc pop=npa geom=check

CID_147277316_JID_2619_Energie_anion

-1 2
