%chk=JID_4291.chk
%mem=8GB
%nprocshared=4
# opt freq B3LYP/6-31G(d) empiricaldispersion=gd3bj scf=xqc

CID_81251695_JID_4291_neutraal

0 1
C          1.07353       -0.03572        0.05760
C          0.70537       -0.72503       -1.25983
C          1.50177       -0.15774       -2.44639
C          1.13690        1.29675       -2.76369
N         -0.28569        1.54807       -2.69310
C         -1.18483        0.69154       -2.11075
N         -2.38319        1.22355       -2.16390
N         -2.26728        2.45184       -2.76326
C         -0.99836        2.66006       -3.07366
C         -0.44397        3.91895       -3.69797
C         -1.58998        4.78007       -4.26678
C          0.31736        4.74595       -2.65146
N          0.46660        3.60145       -4.81281
C         -0.80197       -0.63125       -1.55061
H          0.55710       -0.51469        0.89648
H          0.80275        1.02456        0.06440
H          2.15008       -0.11089        0.24377
H          0.96357       -1.78622       -1.14871
H          2.57956       -0.23487       -2.26146
H          1.29288       -0.77477       -3.33074
H          1.61814        1.97049       -2.04810
H          1.49028        1.53586       -3.76884
H         -2.28652        5.08819       -3.47754
H         -1.21010        5.69366       -4.73990
H         -2.17080        4.23260       -5.01947
H          1.19029        4.21390       -2.25904
H          0.67603        5.69270       -3.07287
H         -0.32534        4.98763       -1.79621
H         -0.07766        3.13054       -5.53833
H          0.78301        4.47250       -5.23883
H         -1.07370       -1.39975       -2.28519
H         -1.38257       -0.83822       -0.64442

--Link1--
%chk=JID_4291.chk
%mem=8GB
%nprocshared=4
# B3LYP/6-311++G(d,p) empiricaldispersion=gd3bj scf=xqc pop=npa geom=check

CID_81251695_JID_4291_Energie_neutraal

0 1

--Link1--
%chk=JID_4291.chk
%mem=8GB
%nprocshared=4
# B3LYP/6-311++G(d,p) empiricaldispersion=gd3bj scf=xqc pop=npa geom=check

CID_81251695_JID_4291_Energie_kation

1 2

--Link1--
%chk=JID_4291.chk
%mem=8GB
%nprocshared=4
# B3LYP/6-311++G(d,p) empiricaldispersion=gd3bj scf=xqc pop=npa geom=check

CID_81251695_JID_4291_Energie_anion

-1 2
