%chk=JID_8107.chk
%mem=8GB
%nprocshared=4
# opt freq B3LYP/6-31G(d) empiricaldispersion=gd3bj scf=xqc

CID_82829878_JID_8107_neutraal

0 1
C         -1.74500       -1.59100        0.00800
C         -0.48583       -1.07327       -0.62782
C          0.53397       -1.94417       -1.06188
C          1.72530       -1.46236       -1.62372
C          1.90241       -0.09376       -1.79862
C          0.89339        0.78412       -1.41022
C         -0.28221        0.29861       -0.83250
O         -1.20426        1.24900       -0.49151
C          0.40859       -3.40972       -0.93377
O          0.97303       -3.94836        0.01363
N         -0.33576       -4.09714       -1.88927
C         -0.98726       -3.48358       -3.03908
C         -0.55710       -5.52943       -1.68524
C          0.67354       -6.40313       -1.95426
C          1.25598       -6.25944       -3.35113
C          1.99670       -7.56470       -3.50057
C          1.06258       -8.53946       -2.81465
O          0.32117       -7.79855       -1.83373
H         -1.93889       -1.06543        0.94911
H         -2.59223       -1.44420       -0.66944
H         -1.69385       -2.65420        0.25739
H          2.50860       -2.15533       -1.92160
H          2.82109        0.28972       -2.23422
H          1.02309        1.85492       -1.54827
H         -1.96447        0.83310       -0.05738
H         -0.79402       -4.09122       -3.92739
H         -2.06392       -3.45221       -2.84819
H         -0.62983       -2.47141       -3.23334
H         -0.87831       -5.68338       -0.64688
H         -1.40070       -5.85773       -2.30541
H          1.45236       -6.20560       -1.20785
H          0.46126       -6.20439       -4.10452
H          1.90001       -5.38239       -3.45900
H          2.20766       -7.83529       -4.53846
H          2.94967       -7.51660       -2.96035
H          0.34296       -8.96363       -3.52260
H          1.59806       -9.36012       -2.32889

--Link1--
%chk=JID_8107.chk
%mem=8GB
%nprocshared=4
# B3LYP/6-311++G(d,p) empiricaldispersion=gd3bj scf=xqc pop=npa geom=check

CID_82829878_JID_8107_Energie_neutraal

0 1

--Link1--
%chk=JID_8107.chk
%mem=8GB
%nprocshared=4
# B3LYP/6-311++G(d,p) empiricaldispersion=gd3bj scf=xqc pop=npa geom=check

CID_82829878_JID_8107_Energie_kation

1 2

--Link1--
%chk=JID_8107.chk
%mem=8GB
%nprocshared=4
# B3LYP/6-311++G(d,p) empiricaldispersion=gd3bj scf=xqc pop=npa geom=check

CID_82829878_JID_8107_Energie_anion

-1 2
