%chk=JID_1989.chk
%mem=8GB
%nprocshared=4
# opt freq B3LYP/6-31G(d) empiricaldispersion=gd3bj scf=xqc

CID_142375252_JID_1989_neutraal

0 1
C          1.04776       -0.04401       -0.07604
C         -1.40543        0.91989        3.83160
C         -1.51573       -0.58777        3.62625
C         -0.51332       -1.43385        4.41290
C          0.90074       -1.33033        3.84797
C          1.72340       -0.17563        4.44549
C          0.95694        1.12098        4.73516
C         -0.01161        1.51254        3.62367
C          2.60912       -0.59792        5.66325
C          3.75372       -0.89709        4.67847
C          3.06833        0.04810        3.67582
H          0.02165        0.11486        0.26260
H          1.35801       -1.06234        0.16792
H          1.71048        0.66728        0.42154
H          1.10135        0.10354       -1.15683
H         -1.76247        1.17258        4.83799
H         -2.09775        1.40837        3.13436
H         -2.52920       -0.89434        3.91429
H         -1.42559       -0.81335        2.55613
H         -0.83425       -2.47934        4.31985
H         -0.54470       -1.19136        5.48077
H          0.85357       -1.23138        2.75675
H          1.41288       -2.28350        4.03208
H          1.67070        1.94306        4.87745
H          0.41959        1.03690        5.68838
H          0.38049        1.25329        2.63494
H         -0.12072        2.60441        3.64148
H          2.25683       -1.45339        6.24691
H          2.84752        0.21646        6.35881
H          4.75130       -0.59462        5.00711
H          3.79370       -1.94078        4.34719
H          3.09628       -0.28167        2.63316
H          3.45955        1.07186        3.71866

--Link1--
%chk=JID_1989.chk
%mem=8GB
%nprocshared=4
# B3LYP/6-311++G(d,p) empiricaldispersion=gd3bj scf=xqc pop=npa geom=check

CID_142375252_JID_1989_Energie_neutraal

0 1

--Link1--
%chk=JID_1989.chk
%mem=8GB
%nprocshared=4
# B3LYP/6-311++G(d,p) empiricaldispersion=gd3bj scf=xqc pop=npa geom=check

CID_142375252_JID_1989_Energie_kation

1 2

--Link1--
%chk=JID_1989.chk
%mem=8GB
%nprocshared=4
# B3LYP/6-311++G(d,p) empiricaldispersion=gd3bj scf=xqc pop=npa geom=check

CID_142375252_JID_1989_Energie_anion

-1 2
