%chk=JID_3872.chk
%mem=8GB
%nprocshared=4
# opt freq B3LYP/6-31G(d) empiricaldispersion=gd3bj scf=xqc

CID_63714040_JID_3872_neutraal

0 1
C          0.93442        0.05145       -0.05524
N          0.41801        1.36770       -0.45878
C         -0.86188        1.22905       -1.18691
C         -2.04634        1.25434       -0.19418
N         -1.92997        2.48763        0.61540
S         -3.02865        2.75162        1.84668
O         -3.47285        1.47102        2.34750
O         -2.42528        3.73951        2.71336
C         -4.36923        3.53035        0.97287
C          1.44165        2.11094       -1.21973
C          2.13446        3.17230       -0.34177
O          2.95578        2.58287        0.66821
C          2.39911        2.73042        1.96973
H          1.14484       -0.58816       -0.92018
H          0.21456       -0.46620        0.58737
H          1.85514        0.14998        0.52838
H         -1.01091        2.07987       -1.86416
H         -0.89011        0.32445       -1.80589
H         -2.99346        1.25464       -0.74189
H         -2.00500        0.37398        0.45481
H         -0.96412        2.64228        0.92673
H         -3.99504        4.42405        0.47002
H         -4.78727        2.82129        0.25643
H         -5.13020        3.80911        1.70518
H          2.18937        1.43289       -1.64976
H          0.99232        2.64923       -2.06292
H          2.80122        3.76212       -0.98043
H          1.40097        3.87013        0.08302
H          2.34890        3.78919        2.24232
H          1.40309        2.28250        2.02787
H          3.05193        2.21933        2.68232

--Link1--
%chk=JID_3872.chk
%mem=8GB
%nprocshared=4
# B3LYP/6-311++G(d,p) empiricaldispersion=gd3bj scf=xqc pop=npa geom=check

CID_63714040_JID_3872_Energie_neutraal

0 1

--Link1--
%chk=JID_3872.chk
%mem=8GB
%nprocshared=4
# B3LYP/6-311++G(d,p) empiricaldispersion=gd3bj scf=xqc pop=npa geom=check

CID_63714040_JID_3872_Energie_kation

1 2

--Link1--
%chk=JID_3872.chk
%mem=8GB
%nprocshared=4
# B3LYP/6-311++G(d,p) empiricaldispersion=gd3bj scf=xqc pop=npa geom=check

CID_63714040_JID_3872_Energie_anion

-1 2
