%chk=JID_9367.chk
%mem=8GB
%nprocshared=4
# opt freq B3LYP/6-31G(d) empiricaldispersion=gd3bj scf=xqc

CID_84175662_JID_9367_neutraal

0 1
C          2.42900        1.51200       -0.04500
N          1.54007        0.37943        0.08817
C          1.91870       -0.92811       -0.06017
C          0.81010       -1.70883        0.17199
C         -0.28464       -0.85217        0.47305
C         -1.64333       -1.05979        0.79403
C         -2.48118        0.03989        1.00284
C         -1.98419        1.33586        0.90203
C         -0.63978        1.57090        0.59737
C          0.19376        0.46062        0.38743
C          0.73842       -3.15826        0.11156
C          0.43809       -3.95953       -0.97470
N          0.50473       -5.23790       -0.46803
C          0.83843       -5.15115        0.85399
N          0.98323       -3.90388        1.23498
C          0.26857       -6.46900       -1.18086
C          0.11055       -3.62352       -2.39452
C         -1.35634       -3.19706       -2.57426
N         -1.48609       -1.76503       -2.84213
H          2.08535        2.12280       -0.88366
H          2.40501        2.08321        0.88654
H          3.44607        1.15967       -0.23507
H          2.93520       -1.20394       -0.30639
H         -2.03305       -2.07026        0.87960
H         -3.52707       -0.12202        1.25039
H         -2.64894        2.18013        1.06983
H         -0.26085        2.58536        0.52906
H          0.96255       -6.01781        1.49026
H         -0.71728       -6.41716       -1.64978
H          1.05074       -6.58729       -1.93477
H          0.29797       -7.30929       -0.48236
H          0.79582       -2.84329       -2.75016
H          0.30482       -4.49008       -3.03797
H         -1.77747       -3.72848       -3.43500
H         -1.96559       -3.46302       -1.70273
H         -2.46917       -1.50051       -2.79403
H         -1.03184       -1.24218       -2.08878

--Link1--
%chk=JID_9367.chk
%mem=8GB
%nprocshared=4
# B3LYP/6-311++G(d,p) empiricaldispersion=gd3bj scf=xqc pop=npa geom=check

CID_84175662_JID_9367_Energie_neutraal

0 1

--Link1--
%chk=JID_9367.chk
%mem=8GB
%nprocshared=4
# B3LYP/6-311++G(d,p) empiricaldispersion=gd3bj scf=xqc pop=npa geom=check

CID_84175662_JID_9367_Energie_kation

1 2

--Link1--
%chk=JID_9367.chk
%mem=8GB
%nprocshared=4
# B3LYP/6-311++G(d,p) empiricaldispersion=gd3bj scf=xqc pop=npa geom=check

CID_84175662_JID_9367_Energie_anion

-1 2
