%chk=JID_7111.chk
%mem=8GB
%nprocshared=4
# opt freq B3LYP/6-31G(d) empiricaldispersion=gd3bj scf=xqc

CID_79397877_JID_7111_neutraal

0 1
C          0.90353       -0.02330        0.01229
C          0.97008        0.37002       -1.47400
C         -0.12449        1.43067       -1.79205
N          0.25710        2.67640       -1.11829
C          1.49743        3.27172       -1.59177
C          2.65690        2.29500       -1.35791
C          2.36246        0.89461       -1.91572
N          3.44586       -0.03912       -1.57942
C         -0.80371        3.60177       -0.72949
C         -1.58659        4.37009       -1.80843
C         -2.90624        3.76899       -2.23521
C         -3.83799        3.29665       -1.31201
C         -5.04024        2.76296       -1.77105
C         -5.29651        2.73325       -3.13457
C         -4.33848        3.25193       -3.98558
N         -3.16403        3.77322       -3.56746
C         -0.33417        1.52842       -3.31129
H          1.56068       -0.87299        0.22362
H         -0.11200       -0.33231        0.28354
H          1.19201        0.79773        0.67552
H          0.74924       -0.54104       -2.04776
H         -1.06774        1.06867       -1.36173
H          1.72557        4.18886       -1.03490
H          1.43491        3.55819       -2.64722
H          2.85916        2.23468       -0.28004
H          3.56597        2.69992       -1.82011
H          2.36536        0.96572       -3.00966
H          4.33080        0.33288       -1.92253
H          3.54589       -0.09249       -0.56616
H         -1.47781        3.06875       -0.05059
H         -0.33795        4.35811       -0.08195
H         -1.81945        5.36885       -1.41505
H         -0.95075        4.54099       -2.68555
H         -3.64888        3.33661       -0.24482
H         -5.77129        2.37648       -1.06668
H         -6.22135        2.32379       -3.52363
H         -4.49150        3.26348       -5.06072
H         -0.60155        0.54642       -3.71780
H         -1.14481        2.20562       -3.56810
H          0.55277        1.87138       -3.85041

--Link1--
%chk=JID_7111.chk
%mem=8GB
%nprocshared=4
# B3LYP/6-311++G(d,p) empiricaldispersion=gd3bj scf=xqc pop=npa geom=check

CID_79397877_JID_7111_Energie_neutraal

0 1

--Link1--
%chk=JID_7111.chk
%mem=8GB
%nprocshared=4
# B3LYP/6-311++G(d,p) empiricaldispersion=gd3bj scf=xqc pop=npa geom=check

CID_79397877_JID_7111_Energie_kation

1 2

--Link1--
%chk=JID_7111.chk
%mem=8GB
%nprocshared=4
# B3LYP/6-311++G(d,p) empiricaldispersion=gd3bj scf=xqc pop=npa geom=check

CID_79397877_JID_7111_Energie_anion

-1 2
