%chk=JID_3058.chk
%mem=8GB
%nprocshared=4
# opt freq B3LYP/6-31G(d) empiricaldispersion=gd3bj scf=xqc

CID_79304244_JID_3058_neutraal

0 1
C         -2.13300       -0.01500        0.07600
N         -0.85692        0.38467       -0.52381
C          0.14190       -0.67999       -0.33848
C          1.45591        0.06205       -0.25502
C          1.07446        1.26321        0.58369
C         -0.33682        1.63306        0.09125
C         -0.23010        2.82961       -0.90815
N         -1.48118        3.47814       -1.33501
C         -1.23501        4.85286       -1.77020
C         -2.30391        2.74292       -2.30819
C         -1.89741        2.67507       -3.79290
C         -0.70738        1.79126       -4.16116
N         -0.87649        0.40872       -3.73203
H         -2.52789       -0.90067       -0.43358
H         -2.03453       -0.24543        1.14348
H         -2.88579        0.77336       -0.02234
H         -0.01607       -1.23672        0.59460
H          0.12627       -1.39143       -1.16975
H          1.79246        0.37589       -1.25036
H          2.24698       -0.53459        0.20794
H          1.80803        2.07014        0.49405
H          1.02810        0.96799        1.63990
H         -0.93252        1.95723        0.95513
H          0.35517        3.59043       -0.37113
H          0.39372        2.55400       -1.76095
H         -0.52636        4.90495       -2.60378
H         -2.16768        5.34278       -2.07206
H         -0.83117        5.44900       -0.94391
H         -2.52525        1.73766       -1.95238
H         -3.28930        3.23098       -2.28957
H         -2.77100        2.30604       -4.34871
H         -1.72056        3.68496       -4.18103
H         -0.60071        1.79532       -5.25215
H          0.22588        2.19996       -3.76817
H         -0.03466       -0.11963       -3.95339
H         -0.94598        0.38057       -2.70486

--Link1--
%chk=JID_3058.chk
%mem=8GB
%nprocshared=4
# B3LYP/6-311++G(d,p) empiricaldispersion=gd3bj scf=xqc pop=npa geom=check

CID_79304244_JID_3058_Energie_neutraal

0 1

--Link1--
%chk=JID_3058.chk
%mem=8GB
%nprocshared=4
# B3LYP/6-311++G(d,p) empiricaldispersion=gd3bj scf=xqc pop=npa geom=check

CID_79304244_JID_3058_Energie_kation

1 2

--Link1--
%chk=JID_3058.chk
%mem=8GB
%nprocshared=4
# B3LYP/6-311++G(d,p) empiricaldispersion=gd3bj scf=xqc pop=npa geom=check

CID_79304244_JID_3058_Energie_anion

-1 2
