%chk=JID_10883.chk
%mem=8GB
%nprocshared=4
# opt freq B3LYP/6-31G(d) empiricaldispersion=gd3bj scf=xqc

CID_137373732_JID_10883_neutraal

0 1
C         -0.78300       -1.00900       -0.20000
C         -0.43277        0.38051        0.33431
C          1.05502        0.61273        0.03754
C          1.47859       -0.59669       -0.78740
C          0.55082       -1.72414       -0.32888
C          1.51932       -0.36554       -2.32220
N          2.70093       -1.22870       -2.31367
C          2.98184       -0.95008       -0.90334
C          2.81022       -2.46548       -2.90917
O          3.54922       -3.35606       -2.50446
O          1.93280       -2.57806       -3.98217
C          1.53103       -3.86700       -4.41966
C          1.44267       -4.01684       -5.82257
C          0.89843       -5.25768       -6.11992
C          0.64004       -5.75345       -7.37132
N          0.08504       -7.00649       -7.19952
C         -0.01601       -7.30853       -5.85593
C          0.48569       -6.23469       -5.16852
C          0.56246       -6.10620       -3.78895
C          1.10505       -4.84622       -3.44697
H         -1.25557       -0.91298       -1.18487
H         -1.48036       -1.54193        0.45293
H         -1.05664        1.14564       -0.14026
H         -0.61307        0.44039        1.41349
H          1.61002        0.64367        0.98277
H          1.22378        1.56464       -0.47578
H          0.86923       -2.10830        0.64767
H          0.49624       -2.56423       -1.02655
H          1.76369        0.64870       -2.65524
H          0.65810       -0.73590       -2.88346
H          3.68145       -0.11709       -0.78082
H          3.31581       -1.80869       -0.31539
H          1.73499       -3.25876       -6.53196
H          0.78964       -5.34733       -8.36218
H         -0.21142       -7.61469       -7.95135
H         -0.43667       -8.25025       -5.53125
H          0.24340       -6.83840       -3.06240
H          1.19263       -4.60823       -2.38782

--Link1--
%chk=JID_10883.chk
%mem=8GB
%nprocshared=4
# B3LYP/6-311++G(d,p) empiricaldispersion=gd3bj scf=xqc pop=npa geom=check

CID_137373732_JID_10883_Energie_neutraal

0 1

--Link1--
%chk=JID_10883.chk
%mem=8GB
%nprocshared=4
# B3LYP/6-311++G(d,p) empiricaldispersion=gd3bj scf=xqc pop=npa geom=check

CID_137373732_JID_10883_Energie_kation

1 2

--Link1--
%chk=JID_10883.chk
%mem=8GB
%nprocshared=4
# B3LYP/6-311++G(d,p) empiricaldispersion=gd3bj scf=xqc pop=npa geom=check

CID_137373732_JID_10883_Energie_anion

-1 2
