%chk=JID_9636.chk
%mem=8GB
%nprocshared=4
# opt freq B3LYP/6-31G(d) empiricaldispersion=gd3bj scf=xqc

CID_103509243_JID_9636_neutraal

0 1
C          1.01703       -0.09235        0.03436
N          0.57383        0.42614        1.31609
C         -0.03818        1.74784        1.29509
C          0.99461       -0.23001        2.48280
O          1.79974       -1.16118        2.41674
C          0.43363        0.20327        3.75126
C         -0.87688        0.34443        4.15340
C         -0.98396        0.77967        5.50325
C          0.24004        0.95100        6.12836
S          1.51179        0.54848        5.03337
N          0.49358        1.31443        7.43163
C          1.42573        2.43819        7.66228
C          2.23662        2.19599        8.91556
S          1.14725        2.05917       10.30497
O          1.90645        1.51648       11.41642
O          0.43207        3.31341       10.45408
C         -0.00352        0.82226        9.77871
C         -0.58224        1.19768        8.43104
N         -1.96126        0.09599        3.38563
H          0.21798        0.03903       -0.70127
H          1.26564       -1.15552        0.09337
H          1.90384        0.46487       -0.28172
H         -1.02734        1.66575        0.83590
H         -0.12743        2.19513        2.28556
H          0.58513        2.41176        0.68729
H         -1.92912        0.96396        5.99512
H          0.85472        3.37263        7.73564
H          2.12637        2.57295        6.83110
H          2.92242        3.02480        9.11287
H          2.81080        1.26621        8.85151
H          0.53585       -0.12950        9.73213
H         -0.78481        0.74900       10.54058
H         -1.14752        2.13622        8.48429
H         -1.28954        0.40561        8.15723
H         -2.88539        0.00167        3.79830
H         -1.87003       -0.41817        2.51127

--Link1--
%chk=JID_9636.chk
%mem=8GB
%nprocshared=4
# B3LYP/6-311++G(d,p) empiricaldispersion=gd3bj scf=xqc pop=npa geom=check

CID_103509243_JID_9636_Energie_neutraal

0 1

--Link1--
%chk=JID_9636.chk
%mem=8GB
%nprocshared=4
# B3LYP/6-311++G(d,p) empiricaldispersion=gd3bj scf=xqc pop=npa geom=check

CID_103509243_JID_9636_Energie_kation

1 2

--Link1--
%chk=JID_9636.chk
%mem=8GB
%nprocshared=4
# B3LYP/6-311++G(d,p) empiricaldispersion=gd3bj scf=xqc pop=npa geom=check

CID_103509243_JID_9636_Energie_anion

-1 2
