%chk=JID_8772.chk
%mem=8GB
%nprocshared=4
# opt freq B3LYP/6-31G(d) empiricaldispersion=gd3bj scf=xqc

CID_105138405_JID_8772_neutraal

0 1
C          0.95513        0.05737       -0.06852
C          0.00519       -0.95605        0.55406
C          0.52346       -1.58047        1.85412
N          0.70750       -0.56447        2.88916
C          1.00950       -1.12535        4.21336
C          2.48817       -1.56592        4.38261
C          3.57358       -0.46399        4.28337
C          3.95549        0.05349        5.67749
C          4.85424       -0.98523        3.59446
C          4.68309       -1.21978        2.09895
C          0.54155       -0.20737        5.31295
C          0.40494        1.17517        5.44409
N         -0.10694        1.58953        6.67595
N         -0.35441        0.57937        7.48529
S         -0.00689       -0.89610        6.80308
C          0.72159        2.25408        4.44255
C         -0.54261        2.72172        3.71976
C          1.43509        3.44607        5.08912
H          1.06091        0.94830        0.55792
H          0.57230        0.38150       -1.04160
H          1.94749       -0.37816       -0.22248
H         -0.96558       -0.47738        0.73198
H         -0.16960       -1.76124       -0.16981
H         -0.21206       -2.32481        2.18140
H          1.46358       -2.10628        1.65594
H          1.45189        0.06500        2.60185
H          0.40704       -2.04034        4.31538
H          2.59440       -2.08453        5.34559
H          2.68059       -2.34337        3.63457
H          3.20855        0.38720        3.70117
H          4.38447       -0.74498        6.29288
H          4.70008        0.85355        5.60149
H          3.09626        0.46344        6.21158
H          5.66031       -0.25204        3.72412
H          5.19158       -1.91225        4.07401
H          4.32320       -0.31511        1.59879
H          5.64464       -1.49265        1.65195
H          3.98195       -2.03140        1.88932
H          1.41322        1.86219        3.69244
H         -1.26230        3.16408        4.41785
H         -0.30099        3.47371        2.96102
H         -1.04171        1.88662        3.21622
H          2.34225        3.12193        5.61126
H          1.72862        4.17874        4.32956
H          0.79494        3.95751        5.81660

--Link1--
%chk=JID_8772.chk
%mem=8GB
%nprocshared=4
# B3LYP/6-311++G(d,p) empiricaldispersion=gd3bj scf=xqc pop=npa geom=check

CID_105138405_JID_8772_Energie_neutraal

0 1

--Link1--
%chk=JID_8772.chk
%mem=8GB
%nprocshared=4
# B3LYP/6-311++G(d,p) empiricaldispersion=gd3bj scf=xqc pop=npa geom=check

CID_105138405_JID_8772_Energie_kation

1 2

--Link1--
%chk=JID_8772.chk
%mem=8GB
%nprocshared=4
# B3LYP/6-311++G(d,p) empiricaldispersion=gd3bj scf=xqc pop=npa geom=check

CID_105138405_JID_8772_Energie_anion

-1 2
