%chk=JID_2319.chk
%mem=8GB
%nprocshared=4
# opt freq B3LYP/6-31G(d) empiricaldispersion=gd3bj scf=xqc

CID_141800226_JID_2319_neutraal

0 1
C          1.07019       -0.05602       -0.04399
C          0.71074        1.40398        0.17163
C          1.37881        2.30188       -0.85578
C         -3.29185       -0.45438       -0.36961
C         -2.51636       -0.73185       -1.62181
C         -1.98177       -1.93604       -1.88779
C         -1.18516       -2.16207       -3.06905
C         -1.15093       -1.27874       -4.07638
C         -1.90045        0.02777       -3.99989
C         -2.33107        0.42667       -2.57493
O         -0.34500       -1.52251       -5.17401
C         -1.02191       -1.34603       -6.41542
H          0.78338       -0.38734       -1.04659
H          0.55219       -0.68664        0.68522
H          2.14697       -0.21507        0.07279
H         -0.37596        1.52627        0.11030
H          1.01552        1.70999        1.17849
H          1.06713        2.03573       -1.87098
H          1.10669        3.34729       -0.68007
H          2.46895        2.21997       -0.79862
H         -3.35413       -1.33482        0.27852
H         -4.31336       -0.14724       -0.61548
H         -2.81475        0.34797        0.20215
H         -2.09496       -2.77104       -1.20199
H         -0.61369       -3.08334       -3.12604
H         -2.79666       -0.05022       -4.62866
H         -1.28900        0.83779       -4.41554
H         -1.57873        1.10207       -2.14852
H         -3.26184        1.00276       -2.64737
H         -1.96813       -1.89782       -6.43305
H         -1.19202       -0.28451       -6.62049
H         -0.38080       -1.74343       -7.20782

--Link1--
%chk=JID_2319.chk
%mem=8GB
%nprocshared=4
# B3LYP/6-311++G(d,p) empiricaldispersion=gd3bj scf=xqc pop=npa geom=check

CID_141800226_JID_2319_Energie_neutraal

0 1

--Link1--
%chk=JID_2319.chk
%mem=8GB
%nprocshared=4
# B3LYP/6-311++G(d,p) empiricaldispersion=gd3bj scf=xqc pop=npa geom=check

CID_141800226_JID_2319_Energie_kation

1 2

--Link1--
%chk=JID_2319.chk
%mem=8GB
%nprocshared=4
# B3LYP/6-311++G(d,p) empiricaldispersion=gd3bj scf=xqc pop=npa geom=check

CID_141800226_JID_2319_Energie_anion

-1 2
