%chk=JID_9598.chk
%mem=8GB
%nprocshared=4
# opt freq B3LYP/6-31G(d) empiricaldispersion=gd3bj scf=xqc

CID_111858445_JID_9598_neutraal

0 1
C          1.07771        0.05838       -0.02349
C          0.72242        0.03036       -1.50820
C          1.46130       -1.08345       -2.24432
O         -0.69385        0.08293       -1.70239
C         -1.41946       -1.11305       -1.97756
C         -1.64889       -2.04463       -0.77255
N         -2.80018       -1.69345        0.08754
C         -2.99165       -2.71177        1.13630
C         -2.43488       -2.10249        2.40499
C         -2.84271       -0.65441        2.25996
C         -2.64888       -0.37912        0.76556
C         -3.67096        0.62304        0.21217
C         -3.59105        2.01338        0.85401
C         -2.34168        2.77820        0.50941
C         -1.78666        3.03169       -0.73259
C         -0.59691        3.81092       -0.65396
C         -0.27734        4.13052        0.64515
S         -1.40361        3.48967        1.75942
O         -4.69034        2.80093        0.38637
H          0.55631        0.87572        0.48313
H          2.15429        0.20168        0.11572
H          0.79786       -0.86629        0.48562
H          1.08820        0.97746       -1.92399
H          1.18832       -2.07182       -1.86085
H          1.22473       -1.06536       -3.31324
H          2.54486       -0.97028       -2.13405
H         -2.39207       -0.80603       -2.38000
H         -0.94064       -1.66316       -2.79421
H         -1.86360       -3.03397       -1.19777
H         -0.73985       -2.14919       -0.17586
H         -2.53632       -3.68231        0.91029
H         -4.06917       -2.88296        1.25061
H         -2.84540       -2.56245        3.30815
H         -1.34235       -2.19217        2.43199
H         -3.89178       -0.53572        2.55787
H         -2.23169        0.00277        2.88662
H         -1.63595        0.00926        0.63792
H         -3.56224        0.71123       -0.87635
H         -4.68774        0.23208        0.35998
H         -3.71623        1.92952        1.93872
H         -2.20490        2.66287       -1.66176
H         -0.00605        4.11613       -1.50863
H          0.56577        4.70922        0.99619
H         -4.56030        2.93829       -0.56665

--Link1--
%chk=JID_9598.chk
%mem=8GB
%nprocshared=4
# B3LYP/6-311++G(d,p) empiricaldispersion=gd3bj scf=xqc pop=npa geom=check

CID_111858445_JID_9598_Energie_neutraal

0 1

--Link1--
%chk=JID_9598.chk
%mem=8GB
%nprocshared=4
# B3LYP/6-311++G(d,p) empiricaldispersion=gd3bj scf=xqc pop=npa geom=check

CID_111858445_JID_9598_Energie_kation

1 2

--Link1--
%chk=JID_9598.chk
%mem=8GB
%nprocshared=4
# B3LYP/6-311++G(d,p) empiricaldispersion=gd3bj scf=xqc pop=npa geom=check

CID_111858445_JID_9598_Energie_anion

-1 2
