%chk=JID_5490.chk
%mem=8GB
%nprocshared=4
# opt freq B3LYP/6-31G(d) empiricaldispersion=gd3bj scf=xqc

CID_139968979_JID_5490_neutraal

0 1
C          0.91759       -0.02931       -0.04847
C          0.43939        1.36173        0.34195
C          0.64287        2.50824       -0.69705
C         -0.01810        2.22874       -2.10623
N         -1.47864        2.33106       -2.26715
C         -1.88852        2.76707       -3.61350
C         -1.24222        2.06799       -4.80954
C         -2.29846        1.24040       -1.73788
C         -2.22285       -0.10928       -2.43824
C         -0.06736        3.78556       -0.12793
O          0.43209        4.15094        1.15878
C         -0.23979        5.28944        1.68015
C          2.19371        2.84235       -0.91988
C          3.06981        2.82667        0.34379
C          2.90204        1.98898       -1.98946
H          0.53145       -0.34871       -1.01706
H          0.57286       -0.75589        0.69565
H          2.00761       -0.09168       -0.06434
H         -0.61617        1.29343        0.61652
H          0.92963        1.62290        1.28798
H          0.40615        3.00642       -2.75725
H          0.33578        1.27652       -2.51452
H         -2.97982        2.70914       -3.71225
H         -1.65766        3.83744       -3.69432
H         -1.40881        0.98943       -4.80597
H         -1.66866        2.46228       -5.73829
H         -0.16308        2.24444       -4.85096
H         -2.08874        1.09334       -0.67935
H         -3.34816        1.56389       -1.74493
H         -1.19446       -0.45014       -2.57719
H         -2.74256       -0.86385       -1.83762
H         -2.72006       -0.08073       -3.41168
H          0.07058        4.62926       -0.81611
H         -1.14413        3.60428       -0.02647
H         -0.09943        6.15246        1.02237
H         -1.30646        5.08076        1.80711
H          0.18816        5.52285        2.65873
H          2.23677        3.87253       -1.30269
H          3.18568        1.81689        0.74823
H          4.07610        3.19440        0.11048
H          2.68284        3.47163        1.13366
H          2.47724        2.14852       -2.98471
H          3.96021        2.26599       -2.06315
H          2.86010        0.92133       -1.76859

--Link1--
%chk=JID_5490.chk
%mem=8GB
%nprocshared=4
# B3LYP/6-311++G(d,p) empiricaldispersion=gd3bj scf=xqc pop=npa geom=check

CID_139968979_JID_5490_Energie_neutraal

0 1

--Link1--
%chk=JID_5490.chk
%mem=8GB
%nprocshared=4
# B3LYP/6-311++G(d,p) empiricaldispersion=gd3bj scf=xqc pop=npa geom=check

CID_139968979_JID_5490_Energie_kation

1 2

--Link1--
%chk=JID_5490.chk
%mem=8GB
%nprocshared=4
# B3LYP/6-311++G(d,p) empiricaldispersion=gd3bj scf=xqc pop=npa geom=check

CID_139968979_JID_5490_Energie_anion

-1 2
