%chk=JID_6657.chk
%mem=8GB
%nprocshared=4
# opt freq B3LYP/6-31G(d) empiricaldispersion=gd3bj scf=xqc

CID_115432371_JID_6657_neutraal

0 1
C          1.06478       -0.02799        0.07086
C          0.96736       -0.22646        1.58306
C          1.19082        1.05038        2.47486
C          0.36627        2.25273        1.92403
C         -1.14623        2.05719        1.88339
C          0.73452        0.68890        3.91830
N          1.56420       -0.29717        4.62047
C          2.69751        1.42245        2.43200
O          3.49989        0.77914        1.74494
N          3.23200        2.49007        3.08003
C          2.79603        3.28363        4.21780
C          3.22725        2.69939        5.56866
O          4.64926        2.62087        5.68367
C          5.20181        1.32117        5.42968
C          4.87272        0.31175        6.53541
O          4.03432       -0.74207        6.06359
H          0.24010        0.57921       -0.31222
H          1.00772       -0.99974       -0.43135
H          2.00440        0.44361       -0.22708
H         -0.02015       -0.65668        1.79384
H          1.69373       -1.00172        1.85903
H          0.55364        3.15230        2.51649
H          0.71757        2.51053        0.91690
H         -1.56159        1.94416        2.88895
H         -1.61959        2.93611        1.43282
H         -1.43551        1.18727        1.28874
H          0.66706        1.58072        4.54534
H         -0.28365        0.28194        3.88412
H          1.05633       -0.62562        5.44672
H          1.67360       -1.13201        4.03742
H          4.22806        2.54617        2.89585
H          3.26425        4.26526        4.08590
H          1.71625        3.42151        4.20245
H          2.89057        3.38470        6.35443
H          2.75540        1.73885        5.77085
H          4.90405        0.96026        4.44182
H          6.28666        1.47029        5.40873
H          5.79421       -0.16500        6.88384
H          4.38700        0.78257        7.39537
H          3.30716       -0.35705        5.52886

--Link1--
%chk=JID_6657.chk
%mem=8GB
%nprocshared=4
# B3LYP/6-311++G(d,p) empiricaldispersion=gd3bj scf=xqc pop=npa geom=check

CID_115432371_JID_6657_Energie_neutraal

0 1

--Link1--
%chk=JID_6657.chk
%mem=8GB
%nprocshared=4
# B3LYP/6-311++G(d,p) empiricaldispersion=gd3bj scf=xqc pop=npa geom=check

CID_115432371_JID_6657_Energie_kation

1 2

--Link1--
%chk=JID_6657.chk
%mem=8GB
%nprocshared=4
# B3LYP/6-311++G(d,p) empiricaldispersion=gd3bj scf=xqc pop=npa geom=check

CID_115432371_JID_6657_Energie_anion

-1 2
