%chk=JID_7092.chk
%mem=8GB
%nprocshared=4
# opt freq B3LYP/6-31G(d) empiricaldispersion=gd3bj scf=xqc

CID_81874136_JID_7092_neutraal

0 1
C          1.02107       -0.08029        0.05577
C          0.47196       -0.80455       -1.18649
C          1.34026       -2.05658       -1.40358
C         -1.05986       -1.12085       -1.06996
C         -1.92067        0.17161       -0.78097
N         -1.68893        1.35796       -1.61302
C         -1.57783       -1.91630       -2.28300
C         -2.02815       -1.28226       -3.45220
C         -2.50901       -2.01088       -4.54671
C         -2.51594       -3.40214       -4.49293
C         -2.04065       -4.06740       -3.36167
C         -1.58465       -3.32801       -2.26744
O         -2.07780       -5.43348       -3.44501
C         -1.42283       -6.15740       -2.41031
O         -2.93348       -1.24640       -5.59988
C         -3.50710       -1.93571       -6.70354
O         -1.24188       -1.94286        0.10752
H          0.90208       -0.68655        0.95992
H          0.52726        0.88020        0.22340
H          2.08974        0.13147       -0.06307
H          0.63331       -0.15311       -2.05546
H          1.19115       -2.79457       -0.60857
H          1.12574       -2.53207       -2.36505
H          2.40391       -1.79286       -1.41730
H         -2.98443       -0.09149       -0.85122
H         -1.77682        0.46702        0.26648
H         -2.30310        2.10980       -1.30084
H         -0.73800        1.69795       -1.47615
H         -2.01601       -0.19816       -3.53658
H         -2.87020       -4.00287       -5.32371
H         -1.20734       -3.83737       -1.38538
H         -0.36818       -5.87237       -2.33133
H         -1.94074       -6.02983       -1.45426
H         -1.46114       -7.21965       -2.67021
H         -2.76907       -2.58032       -7.19198
H         -4.39128       -2.50559       -6.39874
H         -3.83012       -1.18730       -7.43363
H         -2.17566       -2.21866        0.10983

--Link1--
%chk=JID_7092.chk
%mem=8GB
%nprocshared=4
# B3LYP/6-311++G(d,p) empiricaldispersion=gd3bj scf=xqc pop=npa geom=check

CID_81874136_JID_7092_Energie_neutraal

0 1

--Link1--
%chk=JID_7092.chk
%mem=8GB
%nprocshared=4
# B3LYP/6-311++G(d,p) empiricaldispersion=gd3bj scf=xqc pop=npa geom=check

CID_81874136_JID_7092_Energie_kation

1 2

--Link1--
%chk=JID_7092.chk
%mem=8GB
%nprocshared=4
# B3LYP/6-311++G(d,p) empiricaldispersion=gd3bj scf=xqc pop=npa geom=check

CID_81874136_JID_7092_Energie_anion

-1 2
