%chk=JID_6440.chk
%mem=8GB
%nprocshared=4
# opt freq B3LYP/6-31G(d) empiricaldispersion=gd3bj scf=xqc

CID_150162998_JID_6440_neutraal

0 1
C          2.49200        0.00400       -0.01400
C          0.99655        0.14941       -0.15491
C          0.25036       -1.05766       -0.09153
C         -1.13576       -1.07358       -0.12305
C         -1.81474        0.12284       -0.23620
C         -1.12630        1.34966       -0.30461
C          0.31144        1.40031       -0.32582
C          1.01609        2.79421       -0.50775
C          0.42598        3.56777       -1.72318
C          0.83458        3.62903        0.78112
C          2.53805        2.80358       -0.79811
N         -1.92298        2.50802       -0.38441
N         -2.60385        2.71180        0.64087
N         -3.23672        2.90863        1.56925
O          0.89876       -2.25643        0.09509
C          0.84966       -3.05298       -1.08915
H          2.80664       -1.01031        0.25133
H          2.99937        0.23054       -0.95334
H          2.85265        0.62160        0.81201
H         -1.68469       -2.00559       -0.03324
H         -2.90236        0.10621       -0.26033
H         -0.57570        3.96463       -1.55023
H          1.03226        4.44756       -1.97300
H          0.39275        2.92908       -2.61366
H          1.22768        3.09359        1.65341
H          1.36503        4.58633        0.71165
H         -0.20957        3.87064        0.99022
H          3.13373        2.47576        0.05597
H          2.78528        2.20907       -1.68270
H          2.89519        3.82215       -1.00238
H          1.16679       -2.48342       -1.96996
H          1.54456       -3.88780       -0.95745
H         -0.15146       -3.46909       -1.24097

--Link1--
%chk=JID_6440.chk
%mem=8GB
%nprocshared=4
# B3LYP/6-311++G(d,p) empiricaldispersion=gd3bj scf=xqc pop=npa geom=check

CID_150162998_JID_6440_Energie_neutraal

0 1

--Link1--
%chk=JID_6440.chk
%mem=8GB
%nprocshared=4
# B3LYP/6-311++G(d,p) empiricaldispersion=gd3bj scf=xqc pop=npa geom=check

CID_150162998_JID_6440_Energie_kation

1 2

--Link1--
%chk=JID_6440.chk
%mem=8GB
%nprocshared=4
# B3LYP/6-311++G(d,p) empiricaldispersion=gd3bj scf=xqc pop=npa geom=check

CID_150162998_JID_6440_Energie_anion

-1 2
