%chk=JID_5645.chk
%mem=8GB
%nprocshared=4
# opt freq B3LYP/6-31G(d) empiricaldispersion=gd3bj scf=xqc

CID_13749469_JID_5645_neutraal

0 1
C          0.93150       -0.06756       -0.02724
C          0.57963        0.43954       -1.41547
S          0.99954       -0.78478       -2.69065
C          2.75390       -0.69098       -2.65444
N          3.29177        0.47354       -2.61755
C          4.65715        0.58219       -2.60490
O          5.16502        1.69871       -2.56614
N          5.43570       -0.59824       -2.63277
C          4.80616       -1.83269       -2.67229
C          3.47630       -1.97613       -2.68632
C          2.79559       -3.30568       -2.71962
C          6.94266       -0.49036       -2.62886
C          7.42978        0.27429       -3.88081
C          7.43097        0.22854       -1.35019
C          7.67940       -1.85724       -2.65237
H          0.41735       -1.00783        0.19913
H          0.62250        0.66642        0.72452
H          2.00880       -0.22290        0.09021
H         -0.49964        0.61565       -1.47026
H          1.07049        1.39641       -1.61754
H          5.42294       -2.72230       -2.69183
H          2.18685       -3.41092       -3.62332
H          3.51800       -4.12951       -2.71990
H          2.15753       -3.43973       -1.83999
H          7.10357        1.31758       -3.89539
H          8.52462        0.28761       -3.93626
H          7.05314       -0.19949       -4.79471
H          7.04553       -0.27092       -0.45389
H          8.52568        0.22949       -1.28960
H          7.11701        1.27448       -1.30294
H          7.43062       -2.46452       -1.77441
H          7.43779       -2.43098       -3.55453
H          8.76780       -1.72054       -2.64612

--Link1--
%chk=JID_5645.chk
%mem=8GB
%nprocshared=4
# B3LYP/6-311++G(d,p) empiricaldispersion=gd3bj scf=xqc pop=npa geom=check

CID_13749469_JID_5645_Energie_neutraal

0 1

--Link1--
%chk=JID_5645.chk
%mem=8GB
%nprocshared=4
# B3LYP/6-311++G(d,p) empiricaldispersion=gd3bj scf=xqc pop=npa geom=check

CID_13749469_JID_5645_Energie_kation

1 2

--Link1--
%chk=JID_5645.chk
%mem=8GB
%nprocshared=4
# B3LYP/6-311++G(d,p) empiricaldispersion=gd3bj scf=xqc pop=npa geom=check

CID_13749469_JID_5645_Energie_anion

-1 2
