%chk=JID_9487.chk
%mem=8GB
%nprocshared=4
# opt freq B3LYP/6-31G(d) empiricaldispersion=gd3bj scf=xqc

CID_64880705_JID_9487_neutraal

0 1
C         -2.72700        0.43000        0.30800
C         -1.78297        1.35766        1.05609
C         -0.42248        0.70473        1.28842
C          0.26212        0.18461       -0.00116
C         -0.74773       -0.62165       -0.87461
C         -2.13553        0.01062       -1.02824
C          0.75057        1.39348       -0.87491
O          0.05280        1.99939       -1.68459
N          2.00679        1.87279       -0.61906
C          2.70201        1.53508        0.59484
C          2.61089        0.04615        0.91494
O          3.43749       -0.48060        1.65947
N          1.48639       -0.62575        0.39455
C          1.35325       -2.03459        0.78951
C          1.99908       -3.05125       -0.16167
C          1.56780       -2.98089       -1.62322
C          2.57396       -3.87339       -2.34688
C          3.83029       -3.88444       -1.47436
C          3.52029       -2.97737       -0.28643
H         -3.68722        0.93214        0.14479
H         -2.93079       -0.45941        0.91673
H         -1.65980        2.29363        0.49877
H         -2.22588        1.62438        2.02274
H         -0.56100       -0.13373        1.98429
H          0.21194        1.42584        1.81375
H         -0.92208       -1.61732       -0.45939
H         -0.33160       -0.78227       -1.87643
H         -2.80608       -0.71008       -1.51179
H         -2.09332        0.87573       -1.69770
H          2.23412        2.72997       -1.10732
H          2.29248        2.11994        1.42212
H          3.75342        1.79945        0.44831
H          1.80051       -2.16634        1.78317
H          0.29955       -2.28061        0.93981
H          1.74430       -4.04994        0.22268
H          0.53947       -3.32128       -1.77574
H          1.65657       -1.96061       -2.01251
H          2.78125       -3.50212       -3.35563
H          2.18104       -4.89189       -2.44532
H          4.71217       -3.53844       -2.02279
H          4.03493       -4.90528       -1.13144
H          3.85512       -1.96161       -0.52226
H          4.03252       -3.30465        0.62330

--Link1--
%chk=JID_9487.chk
%mem=8GB
%nprocshared=4
# B3LYP/6-311++G(d,p) empiricaldispersion=gd3bj scf=xqc pop=npa geom=check

CID_64880705_JID_9487_Energie_neutraal

0 1

--Link1--
%chk=JID_9487.chk
%mem=8GB
%nprocshared=4
# B3LYP/6-311++G(d,p) empiricaldispersion=gd3bj scf=xqc pop=npa geom=check

CID_64880705_JID_9487_Energie_kation

1 2

--Link1--
%chk=JID_9487.chk
%mem=8GB
%nprocshared=4
# B3LYP/6-311++G(d,p) empiricaldispersion=gd3bj scf=xqc pop=npa geom=check

CID_64880705_JID_9487_Energie_anion

-1 2
