%chk=JID_7512.chk
%mem=8GB
%nprocshared=4
# opt freq B3LYP/6-31G(d) empiricaldispersion=gd3bj scf=xqc

CID_145712059_JID_7512_neutraal

0 1
C          1.03570       -0.08202       -0.04470
C          0.63471        0.35816       -1.47090
C          1.33770       -0.55779       -2.47624
C         -0.86490        0.25291       -1.64585
O         -1.58154        1.06141       -2.21752
O         -1.32703       -0.93747       -1.15584
C         -2.73531       -1.13516       -1.30325
S          1.13233        2.09887       -1.64453
O          0.51654        2.82626       -0.54252
O          2.58659        2.12205       -1.73067
C          0.49225        2.84675       -3.14855
C          0.84633        2.08927       -4.39736
C         -0.16487        1.49314       -5.16743
C          0.14597        0.81065       -6.34481
C          1.46827        0.72637       -6.77394
C          2.47928        1.33179       -6.03144
C          2.17031        2.01629       -4.85480
H          0.84762       -1.14884        0.12208
H          0.46904        0.46639        0.71658
H          2.10111        0.09463        0.14118
H          1.19272       -1.61262       -2.21275
H          0.93654       -0.45015       -3.48483
H          2.41631       -0.37572       -2.51387
H         -3.28923       -0.35270       -0.77532
H         -3.00825       -1.15856       -2.36275
H         -2.98967       -2.10077       -0.85778
H         -0.58393        2.99806       -3.04175
H          0.93357        3.84969       -3.20150
H         -1.20721        1.55704       -4.85743
H         -0.64557        0.35054       -6.93103
H          1.71030        0.19843       -7.69272
H          3.51063        1.27832       -6.37164
H          2.97727        2.49426       -4.30015

--Link1--
%chk=JID_7512.chk
%mem=8GB
%nprocshared=4
# B3LYP/6-311++G(d,p) empiricaldispersion=gd3bj scf=xqc pop=npa geom=check

CID_145712059_JID_7512_Energie_neutraal

0 1

--Link1--
%chk=JID_7512.chk
%mem=8GB
%nprocshared=4
# B3LYP/6-311++G(d,p) empiricaldispersion=gd3bj scf=xqc pop=npa geom=check

CID_145712059_JID_7512_Energie_kation

1 2

--Link1--
%chk=JID_7512.chk
%mem=8GB
%nprocshared=4
# B3LYP/6-311++G(d,p) empiricaldispersion=gd3bj scf=xqc pop=npa geom=check

CID_145712059_JID_7512_Energie_anion

-1 2
