%chk=JID_6072.chk
%mem=8GB
%nprocshared=4
# opt freq B3LYP/6-31G(d) empiricaldispersion=gd3bj scf=xqc

CID_96605930_JID_6072_neutraal

0 1
C          0.93260       -0.06000        0.04311
C          0.40301        0.02449       -1.33809
C          0.06464       -1.01236       -2.20470
N         -0.35983       -0.35953       -3.31443
C         -0.29265        0.98741       -3.11221
N          0.18657        1.26709       -1.92536
C         -0.73314        1.57522       -4.32302
C         -1.02164        0.55125       -5.17228
N         -0.85165       -0.71726       -4.54472
C         -1.40945        0.59628       -6.62037
O         -0.41419       -0.09887       -7.38103
C          0.60910        0.77516       -7.84570
C         -0.76329        3.00498       -4.63316
O         -0.92565        3.49096       -5.74019
O         -0.60330        3.79239       -3.55904
C          0.09399       -2.48229       -2.08093
H          0.27916       -0.67601        0.66853
H          1.00037        0.93306        0.49804
H          1.93285       -0.50380        0.04092
H         -0.21268       -1.29133       -5.09524
H         -2.34902        0.04580       -6.74388
H         -1.58164        1.59865       -7.01898
H          0.19079        1.52919       -8.51940
H          1.11948        1.25827       -7.00725
H          1.33968        0.18090       -8.40109
H         -0.63895        4.70755       -3.90106
H         -0.91797       -2.89486       -2.14374
H          0.69832       -2.92631       -2.87852
H          0.52475       -2.79053       -1.12323

--Link1--
%chk=JID_6072.chk
%mem=8GB
%nprocshared=4
# B3LYP/6-311++G(d,p) empiricaldispersion=gd3bj scf=xqc pop=npa geom=check

CID_96605930_JID_6072_Energie_neutraal

0 1

--Link1--
%chk=JID_6072.chk
%mem=8GB
%nprocshared=4
# B3LYP/6-311++G(d,p) empiricaldispersion=gd3bj scf=xqc pop=npa geom=check

CID_96605930_JID_6072_Energie_kation

1 2

--Link1--
%chk=JID_6072.chk
%mem=8GB
%nprocshared=4
# B3LYP/6-311++G(d,p) empiricaldispersion=gd3bj scf=xqc pop=npa geom=check

CID_96605930_JID_6072_Energie_anion

-1 2
