%chk=JID_9528.chk
%mem=8GB
%nprocshared=4
# opt freq B3LYP/6-31G(d) empiricaldispersion=gd3bj scf=xqc

CID_25483377_JID_9528_neutraal

0 1
C          1.08003       -0.05368       -0.02673
C          0.45499       -1.09789        0.89147
N         -0.22520       -2.21043        0.18689
C         -0.97363       -3.00024        1.18949
C         -1.96512       -3.98598        0.58339
C          0.74595       -3.05721       -0.56563
C          0.59335       -2.96668       -2.12076
C          1.91369       -3.29449       -2.82304
C          2.27182       -4.76063       -2.65460
C          1.17455       -5.60990       -3.27031
N         -0.16617       -5.26677       -2.81272
C         -0.52973       -3.93630       -2.57464
O         -1.70394       -3.55933       -2.61662
C         -1.23459       -6.25542       -2.99871
C         -1.71802       -6.55708       -4.44876
C         -0.75743       -7.51503       -5.17700
C         -3.08465       -7.27081       -4.34353
C         -1.90618       -5.28788       -5.29290
O          0.25032       -1.62767       -2.49126
H          1.88706       -0.46886       -0.63699
H          1.50870        0.75635        0.57314
H          0.32889        0.39009       -0.68773
H          1.21852       -1.48491        1.57886
H         -0.27935       -0.56223        1.50696
H         -0.28646       -3.52964        1.86203
H         -1.56591       -2.32036        1.81558
H         -1.46661       -4.78932        0.03519
H         -2.55490       -4.45383        1.37896
H         -2.66323       -3.47800       -0.08926
H          1.76870       -2.76744       -0.29003
H          0.67572       -4.10740       -0.25491
H          1.83674       -3.05148       -3.89163
H          2.72070       -2.66000       -2.43611
H          2.39901       -5.01142       -1.59585
H          3.22592       -4.97372       -3.14944
H          1.36386       -6.66615       -3.05125
H          1.19457       -5.46887       -4.35553
H         -0.89811       -7.18239       -2.51642
H         -2.09381       -5.91732       -2.40468
H         -0.55168       -8.40564       -4.57291
H         -1.18767       -7.85512       -6.12654
H          0.19730       -7.04326       -5.41837
H         -3.83046       -6.63025       -3.85905
H         -3.47310       -7.53737       -5.33315
H         -3.00402       -8.19329       -3.75727
H         -2.63305       -4.60928       -4.83481
H         -0.96531       -4.74421       -5.42511
H         -2.27935       -5.53449       -6.29388
H         -0.55481       -1.44742       -1.96021

--Link1--
%chk=JID_9528.chk
%mem=8GB
%nprocshared=4
# B3LYP/6-311++G(d,p) empiricaldispersion=gd3bj scf=xqc pop=npa geom=check

CID_25483377_JID_9528_Energie_neutraal

0 1

--Link1--
%chk=JID_9528.chk
%mem=8GB
%nprocshared=4
# B3LYP/6-311++G(d,p) empiricaldispersion=gd3bj scf=xqc pop=npa geom=check

CID_25483377_JID_9528_Energie_kation

1 2

--Link1--
%chk=JID_9528.chk
%mem=8GB
%nprocshared=4
# B3LYP/6-311++G(d,p) empiricaldispersion=gd3bj scf=xqc pop=npa geom=check

CID_25483377_JID_9528_Energie_anion

-1 2
