%chk=JID_4786.chk
%mem=8GB
%nprocshared=4
# opt freq B3LYP/6-31G(d) empiricaldispersion=gd3bj scf=xqc

CID_121209825_JID_4786_neutraal

0 1
C          1.04491       -0.08819       -0.01437
N          0.35869       -1.19506        0.64226
C         -1.03880       -1.23582        0.19323
C         -1.80595       -2.35394        0.93446
N         -2.84422       -1.36400        1.32546
C         -1.90801       -0.26931        1.02459
C         -4.11796       -1.47394        0.55920
C         -5.12016       -0.40308        1.07848
C         -5.02581        0.93609        0.36822
O         -5.10833        0.76681       -1.04230
C         -4.04410       -0.01393       -1.57003
C         -4.07119       -1.41784       -0.99188
C         -4.73877       -2.80243        0.91711
N         -5.21855       -3.83143        1.16515
H          0.58028        0.87349        0.22634
H          1.05996       -0.21484       -1.10194
H          2.08175       -0.04623        0.33362
H          0.87258       -2.05697        0.45746
H         -1.19432       -1.21510       -0.88984
H         -2.11856       -3.19097        0.30120
H         -1.29345       -2.78074        1.80693
H         -1.42953        0.11468        1.93679
H         -2.27030        0.60206        0.48569
H         -6.14496       -0.77160        0.92030
H         -5.02387       -0.26050        2.16300
H         -4.12450        1.49601        0.62797
H         -5.87194        1.56342        0.66917
H         -3.09097        0.49699       -1.41739
H         -4.18930       -0.06954       -2.65448
H         -3.25421       -2.01899       -1.40416
H         -4.98763       -1.89000       -1.37834

--Link1--
%chk=JID_4786.chk
%mem=8GB
%nprocshared=4
# B3LYP/6-311++G(d,p) empiricaldispersion=gd3bj scf=xqc pop=npa geom=check

CID_121209825_JID_4786_Energie_neutraal

0 1

--Link1--
%chk=JID_4786.chk
%mem=8GB
%nprocshared=4
# B3LYP/6-311++G(d,p) empiricaldispersion=gd3bj scf=xqc pop=npa geom=check

CID_121209825_JID_4786_Energie_kation

1 2

--Link1--
%chk=JID_4786.chk
%mem=8GB
%nprocshared=4
# B3LYP/6-311++G(d,p) empiricaldispersion=gd3bj scf=xqc pop=npa geom=check

CID_121209825_JID_4786_Energie_anion

-1 2
