%chk=JID_7977.chk
%mem=8GB
%nprocshared=4
# opt freq B3LYP/6-31G(d) empiricaldispersion=gd3bj scf=xqc

CID_139806051_JID_7977_neutraal

0 1
C          1.00740        0.09292       -0.03620
C          0.20198        1.26368       -0.65782
C          0.32308        1.07615       -2.19377
C         -1.30019        1.24692       -0.34551
C         -2.05020        2.43457       -0.23247
C         -3.42623        2.39691        0.00877
C         -4.08650        1.17733        0.10877
C         -3.37352       -0.00759       -0.02986
C         -1.99538        0.02506       -0.25225
N          0.85195        2.59466       -0.18791
C          1.30438        3.49953       -1.10531
C          1.90066        4.69979       -0.73664
C          2.05465        5.00847        0.59890
C          1.58359        4.11178        1.54236
C          0.96749        2.91138        1.14929
C          0.44873        2.07675        2.19570
N          0.04849        1.39965        3.04825
H          0.85186       -0.84152       -0.58952
H          0.72810       -0.13130        0.99442
H          2.08284        0.30328       -0.06154
H         -0.07515        0.10309       -2.50932
H         -0.24642        1.82960       -2.75088
H          1.36837        1.10908       -2.52325
H         -1.60014        3.41822       -0.33784
H         -3.99268        3.32118        0.10810
H         -5.15992        1.14895        0.28479
H         -3.89466       -0.96157        0.02934
H         -1.48845       -0.93148       -0.37147
H          1.18718        3.29520       -2.16437
H          2.24272        5.39687       -1.50117
H          2.52377        5.94350        0.90319
H          1.68652        4.35711        2.60081

--Link1--
%chk=JID_7977.chk
%mem=8GB
%nprocshared=4
# B3LYP/6-311++G(d,p) empiricaldispersion=gd3bj scf=xqc pop=npa geom=check

CID_139806051_JID_7977_Energie_neutraal

0 1

--Link1--
%chk=JID_7977.chk
%mem=8GB
%nprocshared=4
# B3LYP/6-311++G(d,p) empiricaldispersion=gd3bj scf=xqc pop=npa geom=check

CID_139806051_JID_7977_Energie_kation

1 2

--Link1--
%chk=JID_7977.chk
%mem=8GB
%nprocshared=4
# B3LYP/6-311++G(d,p) empiricaldispersion=gd3bj scf=xqc pop=npa geom=check

CID_139806051_JID_7977_Energie_anion

-1 2
