%chk=JID_8205.chk
%mem=8GB
%nprocshared=4
# opt freq B3LYP/6-31G(d) empiricaldispersion=gd3bj scf=xqc

CID_106790521_JID_8205_neutraal

0 1
C          2.49200        0.00400       -0.01400
C          0.99426       -0.01323        0.07781
C          0.33044       -1.07072        0.71501
C         -1.07020       -1.10860        0.79085
C         -1.83272       -0.08580        0.19571
C         -1.15217        0.95929       -0.46144
C          0.24093        0.99515       -0.52165
C         -3.35708       -0.02917        0.20367
C         -3.99554       -0.48046       -1.12262
C         -3.81182       -1.95312       -1.51262
C         -4.63619       -2.93434       -0.72679
C         -4.19118       -3.97147        0.07011
C         -5.25941       -4.71048        0.65396
C         -6.48872       -4.22980        0.26454
S         -6.34964       -2.90865       -0.81014
O         -3.97399       -0.68132        1.30585
O         -1.77029       -2.11772        1.40116
C         -1.04411       -2.98095        2.27027
H          2.94323       -0.52270        0.83345
H          2.81539       -0.47792       -0.94173
H          2.87100        1.03128        0.00398
H          0.93470       -1.86393        1.14443
H         -1.71402        1.76473       -0.93208
H          0.73123        1.81737       -1.03829
H         -3.62643        1.02674        0.33825
H         -5.06681       -0.24684       -1.08513
H         -3.57844        0.12934       -1.93494
H         -4.08664       -2.06212       -2.57083
H         -2.75273       -2.22988       -1.45696
H         -3.14239       -4.18675        0.23166
H         -5.13359       -5.55293        1.32206
H         -7.46481       -4.59521        0.55134
H         -3.42967       -1.46462        1.50750
H         -0.38056       -3.63856        1.69992
H         -0.49122       -2.41507        3.02746
H         -1.76936       -3.61339        2.79134

--Link1--
%chk=JID_8205.chk
%mem=8GB
%nprocshared=4
# B3LYP/6-311++G(d,p) empiricaldispersion=gd3bj scf=xqc pop=npa geom=check

CID_106790521_JID_8205_Energie_neutraal

0 1

--Link1--
%chk=JID_8205.chk
%mem=8GB
%nprocshared=4
# B3LYP/6-311++G(d,p) empiricaldispersion=gd3bj scf=xqc pop=npa geom=check

CID_106790521_JID_8205_Energie_kation

1 2

--Link1--
%chk=JID_8205.chk
%mem=8GB
%nprocshared=4
# B3LYP/6-311++G(d,p) empiricaldispersion=gd3bj scf=xqc pop=npa geom=check

CID_106790521_JID_8205_Energie_anion

-1 2
