%chk=JID_10669.chk
%mem=8GB
%nprocshared=4
# opt freq B3LYP/6-31G(d) empiricaldispersion=gd3bj scf=xqc

CID_139506051_JID_10669_neutraal

0 1
C          2.54100        1.06400        0.00800
C          1.25767        0.28709        0.02828
C          0.03448        0.96536        0.07818
C         -1.17449        0.26109        0.10287
C         -1.15031       -1.13906        0.08916
C          0.06275       -1.84372        0.05719
C          1.26193       -1.11370        0.01666
C          0.10548       -3.35254       -0.00135
N         -0.83007       -3.98484        0.90575
C         -2.06495       -4.47995        0.79939
O         -2.62678       -4.86102        1.82853
N         -2.74078       -4.58384       -0.34983
C         -2.39120       -4.37256       -1.74641
C         -1.56659       -5.52650       -2.35020
C         -2.53309       -6.64812       -2.73793
O         -3.07460       -6.79009       -3.82500
O         -2.77852       -7.51453       -1.73678
N         -0.84122       -5.04199       -3.55870
C          0.19088       -5.98376       -3.97903
C         -2.47465        1.00798        0.15140
H          2.52795        1.79632       -0.80583
H          2.67902        1.58593        0.96019
H          3.40435        0.40923       -0.14947
H          0.02259        2.05366        0.09449
H         -2.09114       -1.68517        0.10719
H          2.21238       -1.64284       -0.02478
H         -0.01528       -3.69535       -1.02540
H          1.09320       -3.69772        0.32757
H         -0.55957       -3.94021        1.87948
H         -3.63941       -5.01983       -0.17949
H         -3.33958       -4.25317       -2.28510
H         -1.87494       -3.41366       -1.82736
H         -0.84158       -5.90879       -1.62189
H         -3.39856       -8.17004       -2.12001
H         -1.52216       -4.94760       -4.31895
H         -0.22526       -6.96011       -4.24580
H          0.70280       -5.58731       -4.86141
H          0.94431       -6.11714       -3.19609
H         -2.54059        1.58912        1.07667
H         -2.55338        1.68439       -0.70586
H         -3.33154        0.32707        0.11862

--Link1--
%chk=JID_10669.chk
%mem=8GB
%nprocshared=4
# B3LYP/6-311++G(d,p) empiricaldispersion=gd3bj scf=xqc pop=npa geom=check

CID_139506051_JID_10669_Energie_neutraal

0 1

--Link1--
%chk=JID_10669.chk
%mem=8GB
%nprocshared=4
# B3LYP/6-311++G(d,p) empiricaldispersion=gd3bj scf=xqc pop=npa geom=check

CID_139506051_JID_10669_Energie_kation

1 2

--Link1--
%chk=JID_10669.chk
%mem=8GB
%nprocshared=4
# B3LYP/6-311++G(d,p) empiricaldispersion=gd3bj scf=xqc pop=npa geom=check

CID_139506051_JID_10669_Energie_anion

-1 2
