%chk=JID_9107.chk
%mem=8GB
%nprocshared=4
# opt freq B3LYP/6-31G(d) empiricaldispersion=gd3bj scf=xqc

CID_62119243_JID_9107_neutraal

0 1
C          1.07841       -0.06204        0.00167
C          0.19041        0.85252        0.82961
C          0.41303        0.75530        2.34527
C          1.52439        1.62883        2.98236
C          1.20324        3.12325        2.76435
C          1.58235        1.46209        4.51886
O          2.55602        1.64485        5.23512
O          0.40391        1.14068        5.09173
N          2.87997        1.37628        2.45988
C          3.61002        0.28270        2.19949
O          4.70906        0.41543        1.66574
N          3.12054       -0.95623        2.40210
C          2.94571       -1.48384        3.74198
C          2.77293       -2.95818        3.63816
N          3.73940       -3.85452        3.69351
N          3.18798       -5.09763        3.49841
C          1.89921       -4.93649        3.32026
N          1.59048       -3.61391        3.40711
C          0.27714       -3.05159        3.25280
H          2.10873        0.29735       -0.02781
H          0.72091       -0.08521       -1.03349
H          1.06351       -1.08832        0.37923
H          0.27979        1.88214        0.47168
H         -0.84746        0.55409        0.63160
H         -0.54220        1.04421        2.80691
H          0.54543       -0.29221        2.62226
H          0.18900        3.36773        3.10022
H          1.89293        3.76416        3.32810
H          1.29689        3.41091        1.71206
H          0.60326        1.15378        6.05318
H          3.45003        2.20036        2.30728
H          3.75510       -1.57092        1.89926
H          3.83313       -1.23903        4.33586
H          2.08258       -1.02187        4.21795
H          1.17964       -5.72003        3.12888
H          0.11033       -2.30722        4.03467
H          0.20952       -2.59927        2.26122
H         -0.47143       -3.84288        3.34761

--Link1--
%chk=JID_9107.chk
%mem=8GB
%nprocshared=4
# B3LYP/6-311++G(d,p) empiricaldispersion=gd3bj scf=xqc pop=npa geom=check

CID_62119243_JID_9107_Energie_neutraal

0 1

--Link1--
%chk=JID_9107.chk
%mem=8GB
%nprocshared=4
# B3LYP/6-311++G(d,p) empiricaldispersion=gd3bj scf=xqc pop=npa geom=check

CID_62119243_JID_9107_Energie_kation

1 2

--Link1--
%chk=JID_9107.chk
%mem=8GB
%nprocshared=4
# B3LYP/6-311++G(d,p) empiricaldispersion=gd3bj scf=xqc pop=npa geom=check

CID_62119243_JID_9107_Energie_anion

-1 2
