%chk=JID_3838.chk
%mem=8GB
%nprocshared=4
# opt freq B3LYP/6-31G(d) empiricaldispersion=gd3bj scf=xqc

CID_58732187_JID_3838_neutraal

0 1
C          0.95599        0.01013       -0.08922
C          0.37402        1.18500        0.69425
C          0.47024        2.55529       -0.04152
C         -0.14327        2.45377       -1.44562
C          0.10523        3.85351        0.83727
C          0.69160        3.67724        2.26840
C          0.86730        5.13402        0.21049
O          0.44962        5.43437       -1.10351
O          0.66161        6.29823        0.98741
N         -1.52386        4.13323        1.00234
C         -2.12367        4.83197       -0.22591
C         -2.32551        2.86820        1.26743
C         -1.82919        5.08148        2.18536
H          0.33621       -0.24370       -0.95409
H          0.99979       -0.87827        0.54971
H          1.97170        0.22815       -0.43341
H         -0.65740        0.93231        0.94272
H          0.92807        1.22711        1.63687
H          1.54974        2.66880       -0.23071
H         -1.18505        2.12764       -1.42221
H         -0.08012        3.38415       -2.00836
H          0.40279        1.72277       -2.05226
H          1.74447        3.37495        2.21402
H          0.67699        4.60588        2.84787
H          0.15768        2.92070        2.85037
H          1.94284        4.91725        0.19455
H          1.19158        5.87471       -1.55465
H          1.40309        6.90255        0.80680
H         -1.90658        4.25814       -1.12239
H         -3.21059        4.87760       -0.09374
H         -1.74309        5.85361       -0.28540
H         -1.90718        2.35876        2.13766
H         -3.36362        3.14734        1.47884
H         -2.31421        2.23859        0.37926
H         -1.54956        4.59043        3.12028
H         -1.30924        6.02769        2.05494
H         -2.90840        5.27174        2.20004

--Link1--
%chk=JID_3838.chk
%mem=8GB
%nprocshared=4
# B3LYP/6-311++G(d,p) empiricaldispersion=gd3bj scf=xqc pop=npa geom=check

CID_58732187_JID_3838_Energie_neutraal

0 1

--Link1--
%chk=JID_3838.chk
%mem=8GB
%nprocshared=4
# B3LYP/6-311++G(d,p) empiricaldispersion=gd3bj scf=xqc pop=npa geom=check

CID_58732187_JID_3838_Energie_kation

1 2

--Link1--
%chk=JID_3838.chk
%mem=8GB
%nprocshared=4
# B3LYP/6-311++G(d,p) empiricaldispersion=gd3bj scf=xqc pop=npa geom=check

CID_58732187_JID_3838_Energie_anion

-1 2
