%chk=JID_9385.chk
%mem=8GB
%nprocshared=4
# opt freq B3LYP/6-31G(d) empiricaldispersion=gd3bj scf=xqc

CID_43292063_JID_9385_neutraal

0 1
C          1.05951        0.07694        0.02322
C          0.52713       -0.95429        0.93517
C          0.55318       -2.32492        0.76856
C         -0.06514       -2.85878        1.91091
N         -0.45321       -1.89349        2.74516
N         -0.09846       -0.73551        2.13920
C         -0.46231        0.49949        2.85057
C          0.62763        0.96012        3.84567
C          1.34155        2.32001        3.64120
C          0.40772        3.34176        2.97453
C         -0.28041        2.81208        1.72240
C         -1.14834        1.57839        1.99244
C         -2.40459        2.01111        2.65092
N         -3.38111        2.36644        3.16677
C          2.86134        2.31947        3.15827
C          3.12331        3.02861        1.81247
C          3.69071        3.11130        4.20808
C          3.48697        0.91279        3.08619
C         -0.30856       -4.28140        2.24472
H          1.72592        0.75008        0.55256
H          0.25435        0.64676       -0.44715
H          1.64330       -0.38184       -0.78251
H          0.96792       -2.86629       -0.07071
H         -1.26029        0.11837        3.51239
H          1.32817        0.14809        4.05802
H          0.09400        1.07407        4.80421
H          1.41366        2.69709        4.67448
H          0.93173        4.27653        2.75357
H         -0.36654        3.62450        3.70100
H          0.46269        2.58073        0.95983
H         -0.89586        3.61497        1.29466
H         -1.45540        1.15682        1.02717
H          2.85396        4.08881        1.84314
H          4.18921        2.99252        1.55383
H          2.59192        2.56633        0.98340
H          3.63610        2.63842        5.19549
H          4.74956        3.15989        3.92769
H          3.32538        4.14007        4.30492
H          3.49069        0.42267        4.06586
H          2.95911        0.26905        2.37915
H          4.53173        0.95995        2.75579
H          0.14445       -4.53487        3.20848
H         -1.38311       -4.48281        2.30231
H          0.11953       -4.94369        1.48533

--Link1--
%chk=JID_9385.chk
%mem=8GB
%nprocshared=4
# B3LYP/6-311++G(d,p) empiricaldispersion=gd3bj scf=xqc pop=npa geom=check

CID_43292063_JID_9385_Energie_neutraal

0 1

--Link1--
%chk=JID_9385.chk
%mem=8GB
%nprocshared=4
# B3LYP/6-311++G(d,p) empiricaldispersion=gd3bj scf=xqc pop=npa geom=check

CID_43292063_JID_9385_Energie_kation

1 2

--Link1--
%chk=JID_9385.chk
%mem=8GB
%nprocshared=4
# B3LYP/6-311++G(d,p) empiricaldispersion=gd3bj scf=xqc pop=npa geom=check

CID_43292063_JID_9385_Energie_anion

-1 2
