%chk=JID_8174.chk
%mem=8GB
%nprocshared=4
# opt freq B3LYP/6-31G(d) empiricaldispersion=gd3bj scf=xqc

CID_154273361_JID_8174_neutraal

0 1
C          0.93272       -0.07389        0.00364
C         -0.46082       -0.47270       -0.46084
C         -0.82486        0.09875       -1.81505
N         -0.54550       -0.98287       -2.76516
C         -0.41745       -2.03493       -2.02778
O         -0.49837       -1.87907       -0.67672
N         -0.20879       -3.33601       -2.35350
C          0.03630       -3.91455       -3.60481
C          0.21442       -3.18422       -4.78157
C          0.42063       -3.82078       -6.03497
C          0.45253       -5.21591       -6.11231
C          0.26866       -5.93911       -4.94403
C          0.05900       -5.30888       -3.71041
N          0.65138       -5.87444       -7.25935
C          0.83041       -5.12584       -8.35514
N          0.81618       -3.79001       -8.41511
C          0.60315       -3.15546       -7.25486
N          0.61295       -1.75945       -7.33945
H          1.00152        1.00655        0.16174
H          1.69733       -0.37142       -0.72249
H          1.17823       -0.58143        0.94266
H         -1.20093       -0.19773        0.29784
H         -1.89271        0.34132       -1.86259
H         -0.26120        1.00401       -2.06109
H         -0.16756       -3.95901       -1.55987
H          0.21673       -2.09799       -4.75034
H          0.28568       -7.02584       -4.99055
H         -0.08922       -5.93237       -2.83165
H          1.00218       -5.65543       -9.28593
H         -0.21859       -1.35385       -6.92367
H          0.70552       -1.51609       -8.32188

--Link1--
%chk=JID_8174.chk
%mem=8GB
%nprocshared=4
# B3LYP/6-311++G(d,p) empiricaldispersion=gd3bj scf=xqc pop=npa geom=check

CID_154273361_JID_8174_Energie_neutraal

0 1

--Link1--
%chk=JID_8174.chk
%mem=8GB
%nprocshared=4
# B3LYP/6-311++G(d,p) empiricaldispersion=gd3bj scf=xqc pop=npa geom=check

CID_154273361_JID_8174_Energie_kation

1 2

--Link1--
%chk=JID_8174.chk
%mem=8GB
%nprocshared=4
# B3LYP/6-311++G(d,p) empiricaldispersion=gd3bj scf=xqc pop=npa geom=check

CID_154273361_JID_8174_Energie_anion

-1 2
