%chk=JID_6330.chk
%mem=8GB
%nprocshared=4
# opt freq B3LYP/6-31G(d) empiricaldispersion=gd3bj scf=xqc

CID_83823203_JID_6330_neutraal

0 1
C         -2.52600       -0.02400        0.00000
C         -1.55469       -0.06664        1.12945
C         -1.09417        1.08301        1.73633
N         -0.21841        1.09679        2.76048
C          0.19607       -0.10444        3.18919
N         -0.17892       -1.29006        2.69698
C         -1.08185       -1.23624        1.69911
O         -1.41661       -2.47365        1.14703
C         -2.65002       -2.91266        1.57293
O         -3.43482       -2.29754        2.28855
N         -2.98515       -4.15256        1.10175
C         -2.25310       -5.01626        0.15760
C         -0.90547       -5.45993        0.75645
C         -3.10138       -6.28756       -0.06158
C         -2.00571       -4.31017       -1.21481
N         -3.20981       -3.72479       -1.81626
H         -3.54517       -0.17791        0.36700
H         -2.48893        0.94262       -0.51399
H         -2.29337       -0.79006       -0.74650
H         -1.41843        2.06603        1.40491
H          0.90538       -0.11455        4.00930
H         -3.94088       -4.39210        1.32825
H         -1.04574       -5.92335        1.73991
H         -0.40773       -6.19017        0.10819
H         -0.21437       -4.62219        0.88867
H         -4.10212       -6.04803       -0.43763
H         -2.62521       -6.96732       -0.77684
H         -3.23923       -6.83375        0.87931
H         -1.26968       -3.50745       -1.10199
H         -1.57210       -5.02595       -1.92409
H         -2.96465       -3.30298       -2.71160
H         -3.88607       -4.45703       -2.02607

--Link1--
%chk=JID_6330.chk
%mem=8GB
%nprocshared=4
# B3LYP/6-311++G(d,p) empiricaldispersion=gd3bj scf=xqc pop=npa geom=check

CID_83823203_JID_6330_Energie_neutraal

0 1

--Link1--
%chk=JID_6330.chk
%mem=8GB
%nprocshared=4
# B3LYP/6-311++G(d,p) empiricaldispersion=gd3bj scf=xqc pop=npa geom=check

CID_83823203_JID_6330_Energie_kation

1 2

--Link1--
%chk=JID_6330.chk
%mem=8GB
%nprocshared=4
# B3LYP/6-311++G(d,p) empiricaldispersion=gd3bj scf=xqc pop=npa geom=check

CID_83823203_JID_6330_Energie_anion

-1 2
