%chk=JID_1796.chk
%mem=8GB
%nprocshared=4
# opt freq B3LYP/6-31G(d) empiricaldispersion=gd3bj scf=xqc

CID_105430412_JID_1796_neutraal

0 1
C          0.33400        1.00600       -0.17300
C          0.94090       -0.36243        0.19676
C         -0.33837       -1.00985       -0.40418
C         -1.05072        0.33375       -0.08484
C         -0.85265       -2.25472        0.30792
C         -2.27449       -2.64753       -0.10562
C         -2.41809       -2.96070       -1.59044
C         -1.89090       -4.31617       -2.11642
N         -3.09752       -4.40613       -2.97246
C         -3.79709       -3.51575       -2.01669
O          0.04628       -3.33933        0.09264
H          0.59578        1.34727       -1.18112
H          0.51655        1.81588        0.53740
H          1.87947       -0.61398       -0.30397
H          1.06392       -0.50846        1.27641
H         -0.22490       -1.16451       -1.48693
H         -1.49950        0.38534        0.91416
H         -1.78568        0.66713       -0.82209
H         -0.86449       -2.07881        1.39029
H         -2.57891       -3.52404        0.48048
H         -2.96280       -1.83399        0.15315
H         -2.12512       -2.11530       -2.22864
H         -0.94561       -4.27587       -2.66517
H         -1.83095       -5.11649       -1.36944
H         -2.96933       -3.98308       -3.89215
H         -4.34372       -4.06283       -1.23921
H         -4.47618       -2.79221       -2.47714
H          0.34985       -3.31179       -0.82990

--Link1--
%chk=JID_1796.chk
%mem=8GB
%nprocshared=4
# B3LYP/6-311++G(d,p) empiricaldispersion=gd3bj scf=xqc pop=npa geom=check

CID_105430412_JID_1796_Energie_neutraal

0 1

--Link1--
%chk=JID_1796.chk
%mem=8GB
%nprocshared=4
# B3LYP/6-311++G(d,p) empiricaldispersion=gd3bj scf=xqc pop=npa geom=check

CID_105430412_JID_1796_Energie_kation

1 2

--Link1--
%chk=JID_1796.chk
%mem=8GB
%nprocshared=4
# B3LYP/6-311++G(d,p) empiricaldispersion=gd3bj scf=xqc pop=npa geom=check

CID_105430412_JID_1796_Energie_anion

-1 2
