%chk=JID_10369.chk
%mem=8GB
%nprocshared=4
# opt freq B3LYP/6-31G(d) empiricaldispersion=gd3bj scf=xqc

CID_107315356_JID_10369_neutraal

0 1
C         -2.38200       -0.74000       -0.00200
C         -1.20451       -1.41444        0.29629
C          0.02429       -0.74900        0.19342
C          0.01503        0.60069       -0.21651
C          1.22912        1.26431       -0.31843
C          2.44444        0.63199       -0.03286
C          2.44700       -0.69975        0.37981
C          1.23898       -1.38950        0.48938
O          3.55980        1.43293       -0.16787
C          4.79111        0.83838       -0.12347
C          5.59036        0.84106        1.01847
N          6.80699        0.22444        1.06659
C          7.24992       -0.35870       -0.06749
C          6.53890       -0.36965       -1.25621
C          5.29006        0.24286       -1.28403
C          5.15986        1.47340        2.30018
O          5.46296        1.10788        3.42368
O          4.41240        2.58163        2.12669
N         -1.12365        1.25508       -0.50709
C         -2.28963        0.58136       -0.39514
H         -3.34522       -1.23164        0.07119
H         -1.24942       -2.45434        0.60919
H          1.22755        2.30683       -0.62833
H          3.36461       -1.22434        0.62889
H          1.25041       -2.42825        0.81244
H          8.22688       -0.82976        0.00567
H          6.94762       -0.84629       -2.14087
H          4.70405        0.25150       -2.19921
H          4.24191        2.89281        3.04005
H         -3.17871        1.15611       -0.63918

--Link1--
%chk=JID_10369.chk
%mem=8GB
%nprocshared=4
# B3LYP/6-311++G(d,p) empiricaldispersion=gd3bj scf=xqc pop=npa geom=check

CID_107315356_JID_10369_Energie_neutraal

0 1

--Link1--
%chk=JID_10369.chk
%mem=8GB
%nprocshared=4
# B3LYP/6-311++G(d,p) empiricaldispersion=gd3bj scf=xqc pop=npa geom=check

CID_107315356_JID_10369_Energie_kation

1 2

--Link1--
%chk=JID_10369.chk
%mem=8GB
%nprocshared=4
# B3LYP/6-311++G(d,p) empiricaldispersion=gd3bj scf=xqc pop=npa geom=check

CID_107315356_JID_10369_Energie_anion

-1 2
