%chk=JID_7025.chk
%mem=8GB
%nprocshared=4
# opt freq B3LYP/6-31G(d) empiricaldispersion=gd3bj scf=xqc

CID_28584316_JID_7025_neutraal

0 1
C          0.92676       -0.05618        0.03846
C         -0.22712       -0.49224        0.92875
C          0.25163       -0.91916        2.29306
C          0.66505       -2.24490        2.51745
C          1.12433       -2.66910        3.77038
C          1.23005       -1.70533        4.78301
C          0.82577       -0.38429        4.57726
C          0.33351        0.00726        3.33630
N          1.62469       -3.95062        4.02077
C          1.18772       -5.07600        3.18866
C          1.87027       -6.36998        3.64939
O          1.25758       -7.24221        4.26835
N          3.19529       -6.56779        3.36674
C          4.14087       -5.61113        2.81628
C          4.92826       -4.87107        3.90899
C          5.89104       -5.80978        4.63965
C          5.70205       -3.70314        3.29613
H          1.46656        0.79119        0.47469
H          0.55212        0.24956       -0.94351
H          1.64410       -0.87032       -0.11084
H         -0.94833        0.32801        1.02884
H         -0.77129       -1.31800        0.45439
H          0.62612       -2.93744        1.68244
H          1.63536       -1.97896        5.75416
H          0.90818        0.33930        5.38361
H          0.03114        1.04032        3.18271
H          1.57258       -4.18320        5.01186
H          0.10408       -5.21613        3.28051
H          1.42027       -4.92907        2.12927
H          3.55767       -7.43772        3.73757
H          4.82154       -6.17730        2.17034
H          3.60953       -4.89831        2.18001
H          4.23221       -4.46363        4.65131
H          6.61053       -6.25954        3.94696
H          6.45488       -5.26629        5.40544
H          5.35048       -6.61885        5.14110
H          5.01940       -2.99616        2.81257
H          6.25645       -3.15625        4.06611
H          6.41881       -4.05143        2.54464

--Link1--
%chk=JID_7025.chk
%mem=8GB
%nprocshared=4
# B3LYP/6-311++G(d,p) empiricaldispersion=gd3bj scf=xqc pop=npa geom=check

CID_28584316_JID_7025_Energie_neutraal

0 1

--Link1--
%chk=JID_7025.chk
%mem=8GB
%nprocshared=4
# B3LYP/6-311++G(d,p) empiricaldispersion=gd3bj scf=xqc pop=npa geom=check

CID_28584316_JID_7025_Energie_kation

1 2

--Link1--
%chk=JID_7025.chk
%mem=8GB
%nprocshared=4
# B3LYP/6-311++G(d,p) empiricaldispersion=gd3bj scf=xqc pop=npa geom=check

CID_28584316_JID_7025_Energie_anion

-1 2
