%chk=JID_10933.chk
%mem=8GB
%nprocshared=4
# opt freq B3LYP/6-31G(d) empiricaldispersion=gd3bj scf=xqc

CID_114339385_JID_10933_neutraal

0 1
C          1.08538        0.04768       -0.02090
C          0.57945        0.25719       -1.44018
C          0.84485       -0.93834       -2.36996
C          0.09282       -2.19257       -1.92299
N          0.43543       -0.57889       -3.72663
C          1.00208       -0.90041       -4.92708
O          0.34889       -0.63484       -5.94271
C          2.44121       -1.46379       -5.03536
C          3.38996       -0.29979       -4.70501
N          2.59337       -2.69928       -4.22242
C          3.97252       -3.00203       -3.80703
C          4.59264       -3.76571       -4.96212
C          3.40948       -4.37373       -5.70663
C          2.17245       -3.96759       -4.89252
C          0.81177       -4.02679       -5.61865
C          0.76607       -3.69620       -7.11397
C         -0.62140       -4.16724       -7.54439
C         -0.98861       -5.31944       -6.60383
C          0.16450       -5.42426       -5.60313
O          1.07369       -6.44149       -6.00976
H          0.52914       -0.74214        0.49202
H          0.96290        0.96750        0.56013
H          2.14771       -0.21578       -0.01686
H         -0.49342        0.48566       -1.41222
H          1.07214        1.14649       -1.85428
H          1.91542       -1.14902       -2.35653
H         -0.98306       -1.99994       -1.84557
H          0.22363       -3.01160       -2.63632
H          0.44834       -2.54623       -0.95070
H         -0.51028       -0.23652       -3.84301
H          2.61662       -1.69985       -6.09186
H          3.39540       -0.05307       -3.63896
H          4.41632       -0.52565       -5.01262
H          3.08872        0.60798       -5.24124
H          3.92526       -3.65812       -2.92714
H          4.57206       -2.14566       -3.48882
H          5.14451       -3.09107       -5.62651
H          5.28638       -4.53493       -4.60819
H          3.40157       -3.96853       -6.72269
H          3.51080       -5.46106       -5.77752
H          2.08456       -4.68640       -4.06283
H          0.10789       -3.36839       -5.09318
H          1.51336       -4.26058       -7.68141
H          0.91426       -2.63976       -7.33998
H         -0.63195       -4.47822       -8.59380
H         -1.34809       -3.35373       -7.43417
H         -1.14478       -6.24987       -7.15943
H         -1.92207       -5.07209       -6.08532
H         -0.19784       -5.68949       -4.60485
H          1.20217       -6.37691       -6.97146

--Link1--
%chk=JID_10933.chk
%mem=8GB
%nprocshared=4
# B3LYP/6-311++G(d,p) empiricaldispersion=gd3bj scf=xqc pop=npa geom=check

CID_114339385_JID_10933_Energie_neutraal

0 1

--Link1--
%chk=JID_10933.chk
%mem=8GB
%nprocshared=4
# B3LYP/6-311++G(d,p) empiricaldispersion=gd3bj scf=xqc pop=npa geom=check

CID_114339385_JID_10933_Energie_kation

1 2

--Link1--
%chk=JID_10933.chk
%mem=8GB
%nprocshared=4
# B3LYP/6-311++G(d,p) empiricaldispersion=gd3bj scf=xqc pop=npa geom=check

CID_114339385_JID_10933_Energie_anion

-1 2
