%chk=JID_9678.chk
%mem=8GB
%nprocshared=4
# opt freq B3LYP/6-31G(d) empiricaldispersion=gd3bj scf=xqc

CID_116347816_JID_9678_neutraal

0 1
C         -0.72000        1.26100        0.22400
C          0.60222        1.01200       -0.49422
N          1.11266       -0.32687       -0.21544
C          0.17523       -1.37448       -0.61261
C         -1.16274       -1.21897        0.10264
C         -1.74080        0.17940       -0.14062
N         -3.00742        0.39063        0.53884
C         -4.17299        0.84617       -0.00310
C         -5.05232        0.88444        1.06121
N         -4.39736        0.42691        2.18086
N         -3.13953        0.16190        1.85414
C         -6.45468        1.26787        1.08253
O         -7.31139        0.60287        1.66496
N         -6.85462        2.41408        0.41637
C         -6.03945        3.55240        0.04964
C         -5.43466        3.62623       -1.33734
C         -6.62029        4.47588       -1.01240
C         -5.32791        4.25353        1.20126
O         -6.29209        4.69819        2.14912
H         -1.10450        2.25234       -0.04583
H         -0.55141        1.27641        1.30906
H          0.48069        1.15174       -1.57530
H          1.33789        1.75048       -0.15736
H          2.00362       -0.46363       -0.69403
H          0.60544       -2.35006       -0.36120
H          0.03078       -1.35880       -1.69974
H         -1.02161       -1.39642        1.17700
H         -1.86320       -1.98502       -0.25169
H         -1.96141        0.26797       -1.21396
H         -4.28093        1.06968       -1.05188
H         -7.82874        2.60769        0.62272
H         -4.47458        4.11518       -1.45780
H         -5.59761        2.80494       -2.02609
H         -7.56819        4.21224       -1.46932
H         -6.46397        5.54553       -0.92580
H         -4.63272        3.57951        1.70854
H         -4.75497        5.12271        0.85987
H         -6.89399        5.30296        1.68539

--Link1--
%chk=JID_9678.chk
%mem=8GB
%nprocshared=4
# B3LYP/6-311++G(d,p) empiricaldispersion=gd3bj scf=xqc pop=npa geom=check

CID_116347816_JID_9678_Energie_neutraal

0 1

--Link1--
%chk=JID_9678.chk
%mem=8GB
%nprocshared=4
# B3LYP/6-311++G(d,p) empiricaldispersion=gd3bj scf=xqc pop=npa geom=check

CID_116347816_JID_9678_Energie_kation

1 2

--Link1--
%chk=JID_9678.chk
%mem=8GB
%nprocshared=4
# B3LYP/6-311++G(d,p) empiricaldispersion=gd3bj scf=xqc pop=npa geom=check

CID_116347816_JID_9678_Energie_anion

-1 2
