%chk=JID_4619.chk
%mem=8GB
%nprocshared=4
# opt freq B3LYP/6-31G(d) empiricaldispersion=gd3bj scf=xqc

CID_126982949_JID_4619_neutraal

0 1
C          0.96027        0.06530        0.06448
C          0.66702       -1.40958       -0.20740
C          0.82123       -2.30191        1.07374
C         -0.01677       -1.81355        2.26198
N          0.40433       -3.69333        0.80197
C          1.22787       -4.45185       -0.05462
C          0.70711       -5.08904       -1.19706
N          1.43049       -5.83901       -2.06022
C          2.73997       -5.98319       -1.77072
C          3.35587       -5.41347       -0.66772
C          2.58576       -4.64088        0.19990
O         -0.64311       -4.86920       -1.44675
C         -1.10347       -5.53968       -2.61538
N         -0.65157       -1.51139       -0.85950
H          0.19444        0.52942        0.69497
H          0.99920        0.63111       -0.87353
H          1.92960        0.18229        0.56052
H          1.40518       -1.75207       -0.94365
H          1.87004       -2.27434        1.39400
H         -1.08443       -1.77815        2.02174
H          0.10069       -2.49069        3.11610
H          0.29690       -0.81860        2.59132
H         -0.55304       -3.72910        0.44587
H          3.30395       -6.59365       -2.47049
H          4.41166       -5.57469       -0.48015
H          3.04720       -4.21389        1.08466
H         -2.17048       -5.32214       -2.72400
H         -0.59661       -5.16704       -3.51226
H         -0.99406       -6.62563       -2.52104
H         -0.76473       -2.46360       -1.21362
H         -1.39309       -1.36868       -0.17704

--Link1--
%chk=JID_4619.chk
%mem=8GB
%nprocshared=4
# B3LYP/6-311++G(d,p) empiricaldispersion=gd3bj scf=xqc pop=npa geom=check

CID_126982949_JID_4619_Energie_neutraal

0 1

--Link1--
%chk=JID_4619.chk
%mem=8GB
%nprocshared=4
# B3LYP/6-311++G(d,p) empiricaldispersion=gd3bj scf=xqc pop=npa geom=check

CID_126982949_JID_4619_Energie_kation

1 2

--Link1--
%chk=JID_4619.chk
%mem=8GB
%nprocshared=4
# B3LYP/6-311++G(d,p) empiricaldispersion=gd3bj scf=xqc pop=npa geom=check

CID_126982949_JID_4619_Energie_anion

-1 2
