%chk=JID_9639.chk
%mem=8GB
%nprocshared=4
# opt freq B3LYP/6-31G(d) empiricaldispersion=gd3bj scf=xqc

CID_43214884_JID_9639_neutraal

0 1
C          0.90111        0.00330       -0.01449
N          0.13549        0.29944       -1.21416
C         -0.73528       -0.76087       -1.69060
C          0.48039        1.42360       -1.96139
O          1.30103        2.24924       -1.55273
C         -0.16026        1.61450       -3.34024
N          0.26954        0.53365       -4.25159
S          0.23379        0.81446       -5.90357
O          0.47386        2.22433       -6.11552
O          1.12743       -0.17960       -6.45429
C         -1.45403        0.44155       -6.42154
C         -1.93399       -0.88391       -5.87658
C         -2.78825       -0.87841       -4.75734
C         -3.25213       -2.06936       -4.19671
C         -2.87499       -3.28908       -4.74586
C         -2.05575       -3.31650       -5.87381
C         -1.59371       -2.12432       -6.45464
C         -0.84273       -2.22486       -7.67694
N         -0.29091       -2.31779       -8.69327
H          0.22044       -0.33655        0.77167
H          1.44621        0.87687        0.35225
H          1.61872       -0.78944       -0.24640
H         -1.53416       -0.35153       -2.30618
H         -0.14261       -1.47454       -2.26959
H         -1.19380       -1.27260       -0.83924
H         -1.24900        1.64202       -3.25116
H          0.17430        2.59089       -3.70472
H          1.18190        0.13252       -4.01212
H         -2.08326        1.26678       -6.07020
H         -1.47681        0.45933       -7.51557
H         -3.10270        0.06261       -4.30801
H         -3.91048       -2.04368       -3.33105
H         -3.23397       -4.21881       -4.31043
H         -1.79251       -4.27854       -6.31257

--Link1--
%chk=JID_9639.chk
%mem=8GB
%nprocshared=4
# B3LYP/6-311++G(d,p) empiricaldispersion=gd3bj scf=xqc pop=npa geom=check

CID_43214884_JID_9639_Energie_neutraal

0 1

--Link1--
%chk=JID_9639.chk
%mem=8GB
%nprocshared=4
# B3LYP/6-311++G(d,p) empiricaldispersion=gd3bj scf=xqc pop=npa geom=check

CID_43214884_JID_9639_Energie_kation

1 2

--Link1--
%chk=JID_9639.chk
%mem=8GB
%nprocshared=4
# B3LYP/6-311++G(d,p) empiricaldispersion=gd3bj scf=xqc pop=npa geom=check

CID_43214884_JID_9639_Energie_anion

-1 2
