%chk=JID_4161.chk
%mem=8GB
%nprocshared=4
# opt freq B3LYP/6-31G(d) empiricaldispersion=gd3bj scf=xqc

CID_60948559_JID_4161_neutraal

0 1
C          0.93992        0.07980        0.00469
C         -0.06544        0.44690        0.80853
C         -1.30710        1.02698        0.24804
O         -1.66902        2.12772        0.65063
N         -1.98159        0.28986       -0.71711
C         -3.15552        0.93644       -1.29745
C         -3.63450        0.27519       -2.59484
N         -3.70612       -1.18461       -2.57750
C         -2.52552       -1.81227       -1.99487
C         -2.02765       -1.18025       -0.68073
C         -5.00768       -1.77921       -2.33700
C         -5.30896       -2.33590       -0.98029
C         -5.33746       -1.56480        0.31704
C         -6.62566       -1.95808       -0.33337
H          0.85934        0.14490       -1.07645
H          1.87735       -0.27482        0.41964
H          0.03048        0.46523        1.88676
H         -3.94608        0.94406       -0.54382
H         -2.91425        1.98645       -1.50457
H         -2.91888        0.54427       -3.38343
H         -4.58420        0.72478       -2.90822
H         -1.71630       -1.71429       -2.73108
H         -2.66514       -2.89199       -1.86391
H         -1.04271       -1.59315       -0.44894
H         -2.67710       -1.45838        0.15468
H         -5.80335       -1.09335       -2.65353
H         -5.09711       -2.61991       -3.03883
H         -5.01777       -3.38078       -0.91907
H         -5.04674       -2.09372        1.21911
H         -5.09350       -0.51490        0.33539
H         -7.21797       -1.15603       -0.76239
H         -7.21526       -2.73934        0.13053

--Link1--
%chk=JID_4161.chk
%mem=8GB
%nprocshared=4
# B3LYP/6-311++G(d,p) empiricaldispersion=gd3bj scf=xqc pop=npa geom=check

CID_60948559_JID_4161_Energie_neutraal

0 1

--Link1--
%chk=JID_4161.chk
%mem=8GB
%nprocshared=4
# B3LYP/6-311++G(d,p) empiricaldispersion=gd3bj scf=xqc pop=npa geom=check

CID_60948559_JID_4161_Energie_kation

1 2

--Link1--
%chk=JID_4161.chk
%mem=8GB
%nprocshared=4
# B3LYP/6-311++G(d,p) empiricaldispersion=gd3bj scf=xqc pop=npa geom=check

CID_60948559_JID_4161_Energie_anion

-1 2
