%chk=JID_4939.chk
%mem=8GB
%nprocshared=4
# opt freq B3LYP/6-31G(d) empiricaldispersion=gd3bj scf=xqc

CID_151019414_JID_4939_neutraal

0 1
C          0.94453       -0.05372        0.06354
C          0.77416       -1.56432        0.22158
C          1.64866       -2.20696        1.35219
C          1.18972       -1.67338        2.75443
C         -0.30136       -1.77668        3.06989
N          1.50155       -3.67945        1.39765
N          0.48362       -4.20880        0.92321
N         -0.44657       -4.70371        0.48957
N          3.07584       -1.84810        1.09240
C          3.99824       -2.09056        2.22407
C          5.43808       -1.66331        1.88577
O          5.93422       -2.34836        0.73222
C          5.08349       -2.08430       -0.38743
C          3.63869       -2.52567       -0.10425
H          0.67390        0.48164        0.97772
H          0.28941        0.30905       -0.73563
H          1.96993        0.21408       -0.20740
H         -0.28988       -1.76277        0.39609
H          0.98102       -2.03813       -0.74565
H          1.70440       -2.23456        3.54545
H          1.48332       -0.62242        2.86968
H         -0.66523       -2.80388        2.98548
H         -0.48150       -1.45003        4.09990
H         -0.90191       -1.13394        2.42089
H          3.99268       -3.15364        2.49446
H          3.70537       -1.50780        3.10245
H          5.49783       -0.58085        1.71642
H          6.10069       -1.90224        2.72371
H          5.47927       -2.64407       -1.24111
H          5.13076       -1.01791       -0.63917
H          3.63724       -3.61339        0.04114
H          3.05221       -2.30400       -0.99982

--Link1--
%chk=JID_4939.chk
%mem=8GB
%nprocshared=4
# B3LYP/6-311++G(d,p) empiricaldispersion=gd3bj scf=xqc pop=npa geom=check

CID_151019414_JID_4939_Energie_neutraal

0 1

--Link1--
%chk=JID_4939.chk
%mem=8GB
%nprocshared=4
# B3LYP/6-311++G(d,p) empiricaldispersion=gd3bj scf=xqc pop=npa geom=check

CID_151019414_JID_4939_Energie_kation

1 2

--Link1--
%chk=JID_4939.chk
%mem=8GB
%nprocshared=4
# B3LYP/6-311++G(d,p) empiricaldispersion=gd3bj scf=xqc pop=npa geom=check

CID_151019414_JID_4939_Energie_anion

-1 2
