%chk=JID_5711.chk
%mem=8GB
%nprocshared=4
# opt freq B3LYP/6-31G(d) empiricaldispersion=gd3bj scf=xqc

CID_13574890_JID_5711_neutraal

0 1
C          0.94305       -0.01964       -0.07982
C          1.64728       -0.98360        0.85572
O          3.05515       -0.82644        0.88537
C          3.81571       -1.21673       -0.27108
C          3.70404       -2.75028       -0.64450
O          3.07706       -2.96683       -1.91811
C          1.73603       -3.42693       -1.89955
C          1.62152       -4.86901       -1.43888
O          5.03945       -3.29682       -0.77856
C          5.65257       -3.61246        0.38965
O          5.16251       -3.48812        1.50191
C          7.04916       -4.08720        0.12982
O          3.59819       -0.29700       -1.34584
C          4.54337       -0.34334       -2.41131
C          5.93526        0.10565       -2.00038
H         -0.13786       -0.04424        0.08845
H          1.11974       -0.27663       -1.12771
H          1.30189        1.00307        0.07328
H          1.30027       -0.77344        1.87378
H          1.37196       -2.02135        0.65965
H          4.83686       -1.04398        0.08144
H          3.18130       -3.30350        0.14228
H          1.10124       -2.76480       -1.30993
H          1.37477       -3.36592       -2.93196
H          1.85873       -4.97122       -0.37610
H          0.60356       -5.23924       -1.59299
H          2.31918       -5.50844       -1.98876
H          7.45086       -4.54500        1.03833
H          7.04849       -4.84350       -0.65934
H          7.67794       -3.23942       -0.15314
H          4.57908       -1.33229       -2.87505
H          4.17098        0.34634       -3.17667
H          6.42815       -0.65118       -1.38244
H          6.56053        0.26725       -2.88363
H          5.89329        1.03054       -1.41734

--Link1--
%chk=JID_5711.chk
%mem=8GB
%nprocshared=4
# B3LYP/6-311++G(d,p) empiricaldispersion=gd3bj scf=xqc pop=npa geom=check

CID_13574890_JID_5711_Energie_neutraal

0 1

--Link1--
%chk=JID_5711.chk
%mem=8GB
%nprocshared=4
# B3LYP/6-311++G(d,p) empiricaldispersion=gd3bj scf=xqc pop=npa geom=check

CID_13574890_JID_5711_Energie_kation

1 2

--Link1--
%chk=JID_5711.chk
%mem=8GB
%nprocshared=4
# B3LYP/6-311++G(d,p) empiricaldispersion=gd3bj scf=xqc pop=npa geom=check

CID_13574890_JID_5711_Energie_anion

-1 2
