%chk=JID_3598.chk
%mem=8GB
%nprocshared=4
# opt freq B3LYP/6-31G(d) empiricaldispersion=gd3bj scf=xqc

CID_83874475_JID_3598_neutraal

0 1
C          1.08381        0.05334        0.01141
C          0.79895       -0.40184       -1.36712
C          0.80721       -1.67923       -1.88213
C          1.08688       -2.97116       -1.36318
C          0.99820       -4.03927       -2.17357
C          0.59013       -3.90632       -3.55998
C          0.28965       -2.69445       -4.07788
N          0.44581       -1.56239       -3.22641
C          0.35071       -0.19395       -3.46375
N          0.50897        0.50470       -2.35258
C          0.16047        0.41687       -4.80324
N         -0.15782       -2.54542       -5.39431
C         -1.59067       -2.38448       -5.64352
H          0.52075       -0.53873        0.73957
H          0.80462        1.10351        0.14222
H          2.15088       -0.04658        0.23253
H          1.38231       -3.08154       -0.32475
H          1.21458       -5.03601       -1.80183
H          0.49948       -4.81632       -4.14249
H         -0.88159        0.34761       -5.12350
H          0.41799        1.48110       -4.76669
H          0.80850       -0.04333       -5.55426
H          0.16983       -3.33220       -5.95624
H         -1.74403       -2.06368       -6.67791
H         -2.10941       -3.33758       -5.49701
H         -2.03961       -1.64036       -4.97931

--Link1--
%chk=JID_3598.chk
%mem=8GB
%nprocshared=4
# B3LYP/6-311++G(d,p) empiricaldispersion=gd3bj scf=xqc pop=npa geom=check

CID_83874475_JID_3598_Energie_neutraal

0 1

--Link1--
%chk=JID_3598.chk
%mem=8GB
%nprocshared=4
# B3LYP/6-311++G(d,p) empiricaldispersion=gd3bj scf=xqc pop=npa geom=check

CID_83874475_JID_3598_Energie_kation

1 2

--Link1--
%chk=JID_3598.chk
%mem=8GB
%nprocshared=4
# B3LYP/6-311++G(d,p) empiricaldispersion=gd3bj scf=xqc pop=npa geom=check

CID_83874475_JID_3598_Energie_anion

-1 2
