%chk=JID_10987.chk
%mem=8GB
%nprocshared=4
# opt freq B3LYP/6-31G(d) empiricaldispersion=gd3bj scf=xqc

CID_115675232_JID_10987_neutraal

0 1
C          0.91602        0.05034        0.02031
N          0.07084        1.17796        0.33373
C         -0.78188        1.87972       -0.47730
O         -1.20520        2.97153       -0.10425
C         -1.21148        1.35951       -1.79939
C         -1.43799        2.28265       -2.82285
C         -1.94862        1.83958       -4.05324
C         -2.24635        0.49170       -4.31186
C         -2.00494       -0.41170       -3.26221
C         -1.51409        0.01338       -2.01721
N         -2.72701       -0.01331       -5.51782
C         -1.91650       -0.11604       -6.75601
C         -0.41039        0.11286       -6.56741
C          0.39170       -0.12016       -7.85070
C         -0.02866        0.78802       -8.99985
S         -1.75382        0.49355       -9.47662
C         -2.52840        0.77285       -7.85260
N         -2.25370        2.86377       -5.02869
O         -3.44627        3.09373       -5.26852
O         -1.28907        3.46581       -5.52323
H          1.16693        0.03430       -1.04252
H          0.39636       -0.86737        0.30509
H          1.83323        0.13780        0.60839
H          0.24645        1.65908        1.20914
H         -1.25303        3.34231       -2.65061
H         -2.22135       -1.47051       -3.39630
H         -1.41217       -0.71570       -1.21833
H         -3.26450       -0.87016       -5.38017
H         -2.03479       -1.15885       -7.08481
H         -0.20922        1.13092       -6.22086
H         -0.02685       -0.56393       -5.79401
H          1.45233        0.05777       -7.63529
H          0.31116       -1.17242       -8.15207
H          0.09268        1.84241       -8.73005
H          0.60286        0.59756       -9.87341
H         -3.59936        0.56430       -7.95291
H         -2.43233        1.83407       -7.60898

--Link1--
%chk=JID_10987.chk
%mem=8GB
%nprocshared=4
# B3LYP/6-311++G(d,p) empiricaldispersion=gd3bj scf=xqc pop=npa geom=check

CID_115675232_JID_10987_Energie_neutraal

0 1

--Link1--
%chk=JID_10987.chk
%mem=8GB
%nprocshared=4
# B3LYP/6-311++G(d,p) empiricaldispersion=gd3bj scf=xqc pop=npa geom=check

CID_115675232_JID_10987_Energie_kation

1 2

--Link1--
%chk=JID_10987.chk
%mem=8GB
%nprocshared=4
# B3LYP/6-311++G(d,p) empiricaldispersion=gd3bj scf=xqc pop=npa geom=check

CID_115675232_JID_10987_Energie_anion

-1 2
