%chk=JID_9535.chk
%mem=8GB
%nprocshared=4
# opt freq B3LYP/6-31G(d) empiricaldispersion=gd3bj scf=xqc

CID_150909379_JID_9535_neutraal

0 1
C          0.97354       -0.06700       -0.06936
C          0.71150        1.33955        0.45181
C          1.14506        2.44346       -0.52955
C          0.27335        2.57383       -1.80907
C         -1.21180        2.94014       -1.47015
C         -1.55444        3.82599       -0.25918
C         -1.16598        5.28796       -0.36681
C          0.93941        3.39244       -3.01762
C          2.49184        3.49568       -2.88002
C          0.61084        2.79189       -4.52111
C         -0.88079        2.41748       -4.79457
C         -1.88178        3.55322       -4.99839
N          1.04240        3.84023       -5.48341
N          1.47404        1.61968       -4.93379
C          1.49563        0.40992       -4.10388
N          1.63074        1.46343       -6.32859
N          2.33668        0.52211       -6.75060
N          2.97339       -0.33572       -7.15140
N          0.49804        4.81502       -2.95189
H          0.34665       -0.29789       -0.93522
H          0.74668       -0.80302        0.70874
H          2.02215       -0.19262       -0.35680
H         -0.34456        1.42374        0.71970
H          1.28043        1.46935        1.38064
H          1.17423        3.40376       -0.00364
H          2.18117        2.21066       -0.79255
H          0.18808        1.55662       -2.19700
H         -1.71602        3.35712       -2.34108
H         -1.72629        1.98486       -1.28821
H         -2.64468        3.78779       -0.13241
H         -1.14244        3.41879        0.66734
H         -1.54947        5.73510       -1.28851
H         -1.59272        5.84752        0.47264
H         -0.08275        5.41930       -0.31978
H          2.97349        2.51464       -2.86194
H          2.94308        4.05569       -3.70773
H          2.78679        4.02297       -1.96439
H         -0.94015        1.79901       -5.70137
H         -1.24410        1.76136       -3.99671
H         -1.76575        4.00707       -5.98801
H         -2.90201        3.15752       -4.95025
H         -1.79415        4.34327       -4.25158
H          1.22427        3.31899       -6.34242
H          0.26538        4.46031       -5.68072
H          0.49728       -0.03403       -4.08583
H          2.20901       -0.32337       -4.48618
H          1.82675        0.65260       -3.09551
H          0.98200        5.28519       -2.18940
H          0.86168        5.25355       -3.80542

--Link1--
%chk=JID_9535.chk
%mem=8GB
%nprocshared=4
# B3LYP/6-311++G(d,p) empiricaldispersion=gd3bj scf=xqc pop=npa geom=check

CID_150909379_JID_9535_Energie_neutraal

0 1

--Link1--
%chk=JID_9535.chk
%mem=8GB
%nprocshared=4
# B3LYP/6-311++G(d,p) empiricaldispersion=gd3bj scf=xqc pop=npa geom=check

CID_150909379_JID_9535_Energie_kation

1 2

--Link1--
%chk=JID_9535.chk
%mem=8GB
%nprocshared=4
# B3LYP/6-311++G(d,p) empiricaldispersion=gd3bj scf=xqc pop=npa geom=check

CID_150909379_JID_9535_Energie_anion

-1 2
