%chk=JID_6541.chk
%mem=8GB
%nprocshared=4
# opt freq B3LYP/6-31G(d) empiricaldispersion=gd3bj scf=xqc

CID_127453542_JID_6541_neutraal

0 1
C          1.06552       -0.04761       -0.05865
C          0.76618        1.30601        0.59109
C          0.96442        2.42277       -0.43830
C         -0.66316        1.38265        1.16913
C         -0.95710        0.38786        2.28813
S         -0.35096        0.90001        3.90467
O          0.72089        1.85871        3.74556
O         -1.50388        1.20181        4.72692
N          0.33585       -0.50715        4.50404
C         -0.51408       -1.65212        4.86531
C          0.48311       -2.79552        5.07529
C         -0.05408       -4.17072        4.67545
C          0.61844       -4.52245        3.34650
C          1.17187       -3.20908        2.81461
C          1.60285       -2.48235        4.08538
C          1.64068       -0.96354        3.98650
H          0.32440       -0.29021       -0.82771
H          1.07478       -0.85851        0.67263
H          2.05205       -0.03728       -0.53512
H          1.49772        1.46358        1.39011
H          0.27259        2.31509       -1.28072
H          0.79718        3.40513        0.01587
H          1.98526        2.40990       -0.83504
H         -0.86566        2.40129        1.52263
H         -1.37274        1.19263        0.35298
H         -2.04140        0.27469        2.40279
H         -0.56243       -0.60062        2.05903
H         -1.07213       -1.45103        5.78424
H         -1.22200       -1.87289        4.05975
H          0.85276       -2.78476        6.10725
H         -1.14520       -4.17028        4.57965
H          0.20255       -4.92343        5.42919
H         -0.07729       -4.99112        2.64398
H          1.43907       -5.22806        3.52299
H          0.38684       -2.66650        2.27825
H          2.00534       -3.36092        2.12209
H          2.56594       -2.88311        4.42357
H          1.83284       -0.62928        2.96432
H          2.42273       -0.55902        4.63807

--Link1--
%chk=JID_6541.chk
%mem=8GB
%nprocshared=4
# B3LYP/6-311++G(d,p) empiricaldispersion=gd3bj scf=xqc pop=npa geom=check

CID_127453542_JID_6541_Energie_neutraal

0 1

--Link1--
%chk=JID_6541.chk
%mem=8GB
%nprocshared=4
# B3LYP/6-311++G(d,p) empiricaldispersion=gd3bj scf=xqc pop=npa geom=check

CID_127453542_JID_6541_Energie_kation

1 2

--Link1--
%chk=JID_6541.chk
%mem=8GB
%nprocshared=4
# B3LYP/6-311++G(d,p) empiricaldispersion=gd3bj scf=xqc pop=npa geom=check

CID_127453542_JID_6541_Energie_anion

-1 2
