%chk=JID_2136.chk
%mem=8GB
%nprocshared=4
# opt freq B3LYP/6-31G(d) empiricaldispersion=gd3bj scf=xqc

CID_106895274_JID_2136_neutraal

0 1
C          1.21500       -0.78800       -0.01800
C          1.19695        0.59113       -0.17828
C          0.12820        1.31195        0.34352
N         -0.87887        0.69125        1.00104
N         -0.86132       -0.66597        1.15914
C          0.16424       -1.37752        0.65487
C          0.06003        2.81715        0.20577
N         -0.23919        3.24838       -1.16534
C         -0.31993        4.70317       -1.29670
C          1.02551        5.44154       -1.28505
C          1.99769        5.06614       -2.40628
N          1.47934        5.39238       -3.72810
H          2.02757       -1.38826       -0.41024
H          2.00487        1.09278       -0.69923
H          0.11111       -2.44823        0.81311
H         -0.71612        3.19072        0.88500
H          1.01602        3.22914        0.54896
H          0.43591        2.86069       -1.81746
H         -0.84259        4.92345       -2.23432
H         -0.96196        5.11214       -0.50644
H          0.82334        6.51948       -1.33909
H          1.52594        5.28151       -0.32259
H          2.93067        5.62126       -2.25773
H          2.25265        4.00233       -2.36151
H          2.17239        5.15544       -4.43733
H          0.65715        4.82638       -3.93675

--Link1--
%chk=JID_2136.chk
%mem=8GB
%nprocshared=4
# B3LYP/6-311++G(d,p) empiricaldispersion=gd3bj scf=xqc pop=npa geom=check

CID_106895274_JID_2136_Energie_neutraal

0 1

--Link1--
%chk=JID_2136.chk
%mem=8GB
%nprocshared=4
# B3LYP/6-311++G(d,p) empiricaldispersion=gd3bj scf=xqc pop=npa geom=check

CID_106895274_JID_2136_Energie_kation

1 2

--Link1--
%chk=JID_2136.chk
%mem=8GB
%nprocshared=4
# B3LYP/6-311++G(d,p) empiricaldispersion=gd3bj scf=xqc pop=npa geom=check

CID_106895274_JID_2136_Energie_anion

-1 2
