%chk=JID_10839.chk
%mem=8GB
%nprocshared=4
# opt freq B3LYP/6-31G(d) empiricaldispersion=gd3bj scf=xqc

CID_47328978_JID_10839_neutraal

0 1
C          1.02653       -0.08327       -0.04860
C          1.47597       -1.45841       -0.44383
C          2.89084       -1.90028       -0.20674
C          1.79083       -2.52426        0.60327
C          1.32227       -2.24474        1.97809
O          0.14711       -2.47906        2.25019
N          2.11887       -1.74307        2.96003
C          3.52463       -1.34122        3.02043
C          4.02746       -1.45325        4.46702
C          3.38034       -0.40169        5.38361
N          3.53273        0.96073        4.86904
C          3.09296        1.10778        3.48065
C          3.76817        0.10019        2.56055
C          2.95208        1.98811        5.75589
C          1.45405        2.19942        5.65809
C          0.55203        1.38139        6.34285
C         -0.80779        1.59288        6.16598
N         -1.32456        2.55626        5.37426
C         -0.44183        3.34364        4.72731
C          0.93341        3.20962        4.83769
H          1.28470        0.19090        0.97489
H         -0.06197       -0.01220       -0.14318
H          1.47054        0.65798       -0.72055
H          0.99330       -1.78409       -1.35910
H          3.35132       -2.51752       -0.97425
H          3.59470       -1.21120        0.22234
H          1.54873       -3.54672        0.31719
H          1.55148       -1.55566        3.77740
H          4.08831       -2.03201        2.38459
H          3.82264       -2.45489        4.86406
H          5.11724       -1.32106        4.48186
H          2.32518       -0.65436        5.52777
H          3.85967       -0.47541        6.36723
H          3.34066        2.11362        3.11970
H          2.00777        0.98369        3.38388
H          4.84874        0.29393        2.53587
H          3.40474        0.28013        1.54961
H          3.21978        1.78333        6.80077
H          3.45010        2.94136        5.53223
H          0.89251        0.58562        6.99560
H         -1.54093        0.96909        6.66958
H         -0.88119        4.10657        4.09090
H          1.58500        3.87169        4.27656

--Link1--
%chk=JID_10839.chk
%mem=8GB
%nprocshared=4
# B3LYP/6-311++G(d,p) empiricaldispersion=gd3bj scf=xqc pop=npa geom=check

CID_47328978_JID_10839_Energie_neutraal

0 1

--Link1--
%chk=JID_10839.chk
%mem=8GB
%nprocshared=4
# B3LYP/6-311++G(d,p) empiricaldispersion=gd3bj scf=xqc pop=npa geom=check

CID_47328978_JID_10839_Energie_kation

1 2

--Link1--
%chk=JID_10839.chk
%mem=8GB
%nprocshared=4
# B3LYP/6-311++G(d,p) empiricaldispersion=gd3bj scf=xqc pop=npa geom=check

CID_47328978_JID_10839_Energie_anion

-1 2
