%chk=JID_9048.chk
%mem=8GB
%nprocshared=4
# opt freq B3LYP/6-31G(d) empiricaldispersion=gd3bj scf=xqc

CID_86848272_JID_9048_neutraal

0 1
C          1.09297       -0.00140        0.03679
C          0.06563       -1.11190       -0.13649
C          0.51229       -2.21893       -1.11472
C          1.76948       -2.97612       -0.66099
C          1.51572       -3.87632        0.54727
C          0.37487       -4.87302        0.28626
C         -0.89441       -4.13891       -0.17443
C         -0.62692       -3.22132       -1.36781
C          0.06103       -5.74119        1.51741
N          1.16249       -6.62257        1.86044
C          2.08073       -6.49893        2.86175
O          2.99818       -7.31690        2.92609
C          1.89287       -5.39751        3.88711
C          3.16390       -5.12688        4.69601
C          4.26299       -4.48729        3.84812
C          5.52658       -4.18166        4.63539
C          6.13302       -3.07576        3.80846
C          4.90876       -2.29522        3.37896
O          3.81461       -3.22277        3.32334
H          1.98675       -0.35765        0.55682
H          0.66779        0.81121        0.63489
H          1.39330        0.41266       -0.93074
H         -0.17383       -1.52566        0.84877
H         -0.85945       -0.65956       -0.51559
H          0.74212       -1.73288       -2.07248
H          2.12203       -3.60050       -1.49278
H          2.58809       -2.28374       -0.43944
H          1.28441       -3.25806        1.42197
H          2.44151       -4.41602        0.77728
H          0.69336       -5.53913       -0.52819
H         -1.31229       -3.55552        0.65491
H         -1.66163       -4.87069       -0.45576
H         -1.54794       -2.69010       -1.63571
H         -0.36516       -3.84158       -2.23506
H         -0.22291       -5.12459        2.37473
H         -0.78739       -6.39868        1.29561
H          1.36786       -7.38943        1.23079
H          1.56603       -4.47289        3.40734
H          1.09686       -5.72225        4.56728
H          2.89581       -4.44466        5.51260
H          3.53437       -6.05281        5.15118
H          4.51180       -5.11996        2.98796
H          5.28601       -3.80292        5.63612
H          6.18052       -5.05126        4.74399
H          6.85870       -2.46562        4.35246
H          6.63330       -3.49968        2.92962
H          4.65257       -1.52418        4.11308
H          5.03651       -1.81845        2.40298

--Link1--
%chk=JID_9048.chk
%mem=8GB
%nprocshared=4
# B3LYP/6-311++G(d,p) empiricaldispersion=gd3bj scf=xqc pop=npa geom=check

CID_86848272_JID_9048_Energie_neutraal

0 1

--Link1--
%chk=JID_9048.chk
%mem=8GB
%nprocshared=4
# B3LYP/6-311++G(d,p) empiricaldispersion=gd3bj scf=xqc pop=npa geom=check

CID_86848272_JID_9048_Energie_kation

1 2

--Link1--
%chk=JID_9048.chk
%mem=8GB
%nprocshared=4
# B3LYP/6-311++G(d,p) empiricaldispersion=gd3bj scf=xqc pop=npa geom=check

CID_86848272_JID_9048_Energie_anion

-1 2
