%chk=JID_8183.chk
%mem=8GB
%nprocshared=4
# opt freq B3LYP/6-31G(d) empiricaldispersion=gd3bj scf=xqc

CID_64895403_JID_8183_neutraal

0 1
C          2.49200        0.00400       -0.01400
C          1.02351       -0.00663       -0.31100
C          0.38222       -1.20664       -0.62968
C         -0.99568       -1.23608       -0.85502
C         -1.76375       -0.06546       -0.76634
C         -1.11378        1.13389       -0.43819
C          0.26426        1.16269       -0.20911
C         -3.26867       -0.05517       -0.92641
N         -3.78700       -1.27542       -1.50214
C         -4.73885       -2.14753       -1.08892
O         -4.93338       -3.12746       -1.82143
C         -5.50592       -2.04184        0.24853
C         -4.82521       -2.81854        1.39002
C         -3.60349       -2.18497        2.04551
C         -3.97301       -1.24108        3.15319
O         -4.16831       -1.53567        4.31953
O         -4.12398        0.02988        2.73353
N         -5.95640       -0.67993        0.57657
H          2.66684       -0.29739        1.02343
H          3.02698       -0.68164       -0.67956
H          2.91799        1.00141       -0.16552
H          0.95062       -2.13196       -0.69574
H         -1.45930       -2.19338       -1.08316
H         -1.68269        2.05673       -0.34243
H          0.73916        2.10438        0.05721
H         -3.70487        0.14788        0.04584
H         -3.55315        0.75072       -1.61208
H         -3.43405       -1.51253       -2.42037
H         -6.43815       -2.58614        0.03540
H         -5.57675       -3.03129        2.16185
H         -4.51360       -3.79320        0.99108
H         -2.99199       -2.97014        2.50835
H         -2.94562       -1.68894        1.33282
H         -4.32064        0.52308        3.56034
H         -6.80696       -0.74588        1.13644
H         -5.28159       -0.22002        1.19129

--Link1--
%chk=JID_8183.chk
%mem=8GB
%nprocshared=4
# B3LYP/6-311++G(d,p) empiricaldispersion=gd3bj scf=xqc pop=npa geom=check

CID_64895403_JID_8183_Energie_neutraal

0 1

--Link1--
%chk=JID_8183.chk
%mem=8GB
%nprocshared=4
# B3LYP/6-311++G(d,p) empiricaldispersion=gd3bj scf=xqc pop=npa geom=check

CID_64895403_JID_8183_Energie_kation

1 2

--Link1--
%chk=JID_8183.chk
%mem=8GB
%nprocshared=4
# B3LYP/6-311++G(d,p) empiricaldispersion=gd3bj scf=xqc pop=npa geom=check

CID_64895403_JID_8183_Energie_anion

-1 2
