%chk=JID_5133.chk
%mem=8GB
%nprocshared=4
# opt freq B3LYP/6-31G(d) empiricaldispersion=gd3bj scf=xqc

CID_79444757_JID_5133_neutraal

0 1
C          0.97227       -0.09550       -0.01055
C          0.11943        0.35404        1.16931
C          0.74426        1.51281        1.95295
C          0.90954        2.79729        1.14659
C          0.12067        1.74724        3.34081
O          0.86799        1.59442        4.32147
C         -1.41196        2.10677        3.53813
C         -1.99481        2.91336        2.36441
C         -2.17742        0.74858        3.63160
C         -1.63248       -0.26122        4.64087
N         -1.53494        2.94211        4.76886
C         -0.70491        4.14525        4.87501
C         -1.42881        5.47875        4.72445
C         -2.69844        2.88417        5.64543
C         -4.01892        3.39254        5.07556
H          1.06503        0.69554       -0.76069
H          0.51349       -0.96281       -0.49619
H          1.97640       -0.38356        0.31623
H         -0.87002        0.62394        0.79033
H         -0.02084       -0.50375        1.83750
H          1.77151        1.19198        2.18877
H          0.03030        3.01688        0.53498
H          1.10042        3.65689        1.79720
H          1.75892        2.71107        0.45984
H         -2.00645        2.33733        1.43595
H         -3.03276        3.20818        2.54289
H         -1.42736        3.82900        2.17254
H         -3.23531        0.92159        3.85504
H         -2.18475        0.25748        2.65203
H         -1.49219        0.17124        5.63422
H         -2.32869       -1.10127        4.73540
H         -0.67407       -0.67400        4.31171
H         -0.21204        4.13202        5.85540
H          0.11311        4.13607        4.14678
H         -2.12961        5.65483        5.54589
H         -0.70126        6.29745        4.74111
H         -1.97215        5.53971        3.77722
H         -2.85395        1.86259        6.00503
H         -2.48577        3.44888        6.56298
H         -4.39980        2.74780        4.28006
H         -4.77707        3.40626        5.86629
H         -3.94062        4.40884        4.68292

--Link1--
%chk=JID_5133.chk
%mem=8GB
%nprocshared=4
# B3LYP/6-311++G(d,p) empiricaldispersion=gd3bj scf=xqc pop=npa geom=check

CID_79444757_JID_5133_Energie_neutraal

0 1

--Link1--
%chk=JID_5133.chk
%mem=8GB
%nprocshared=4
# B3LYP/6-311++G(d,p) empiricaldispersion=gd3bj scf=xqc pop=npa geom=check

CID_79444757_JID_5133_Energie_kation

1 2

--Link1--
%chk=JID_5133.chk
%mem=8GB
%nprocshared=4
# B3LYP/6-311++G(d,p) empiricaldispersion=gd3bj scf=xqc pop=npa geom=check

CID_79444757_JID_5133_Energie_anion

-1 2
