%chk=JID_6814.chk
%mem=8GB
%nprocshared=4
# opt freq B3LYP/6-31G(d) empiricaldispersion=gd3bj scf=xqc

CID_153745554_JID_6814_neutraal

0 1
C          0.96388       -0.05010        0.07865
C          0.20709        0.36516       -1.17494
C          0.48187       -0.54484       -2.37439
C         -0.08367       -1.92716       -2.21145
C          0.66327       -3.03935       -2.20425
S         -0.04628       -4.61140       -2.06483
C          0.10690       -4.90569       -0.26489
C         -0.48458       -6.25312        0.03839
C          0.30885       -7.07146        0.73291
C          1.55747       -6.32592        0.93354
O          2.47529       -6.76875        1.60765
C          1.56826       -5.03177        0.18070
C          2.05080       -3.86803        0.97287
O          2.87159       -3.04397        0.60181
O          1.46100       -3.74172        2.18043
O         -0.68005       -3.96841        0.45730
H          0.63266       -1.02890        0.43819
H          0.79084        0.67516        0.88009
H          2.04114       -0.09637       -0.10968
H         -0.86763        0.39373       -0.95835
H          0.50447        1.38737       -1.43795
H          0.02171       -0.09910       -3.26473
H          1.56087       -0.58180       -2.56817
H         -1.16554       -1.99709       -2.11062
H          1.74315       -2.97881       -2.31245
H         -1.49551       -6.51265       -0.25278
H          0.12142       -8.06490        1.09970
H          2.25761       -5.19373       -0.65878
H          1.90614       -2.96040        2.57950
H         -0.47922       -4.06675        1.40637

--Link1--
%chk=JID_6814.chk
%mem=8GB
%nprocshared=4
# B3LYP/6-311++G(d,p) empiricaldispersion=gd3bj scf=xqc pop=npa geom=check

CID_153745554_JID_6814_Energie_neutraal

0 1

--Link1--
%chk=JID_6814.chk
%mem=8GB
%nprocshared=4
# B3LYP/6-311++G(d,p) empiricaldispersion=gd3bj scf=xqc pop=npa geom=check

CID_153745554_JID_6814_Energie_kation

1 2

--Link1--
%chk=JID_6814.chk
%mem=8GB
%nprocshared=4
# B3LYP/6-311++G(d,p) empiricaldispersion=gd3bj scf=xqc pop=npa geom=check

CID_153745554_JID_6814_Energie_anion

-1 2
