%chk=JID_4374.chk
%mem=8GB
%nprocshared=4
# opt freq B3LYP/6-31G(d) empiricaldispersion=gd3bj scf=xqc

CID_130566297_JID_4374_neutraal

0 1
C          0.91673        0.00150       -0.05536
C          0.08786       -0.57863       -1.19312
C          0.80003       -1.71363       -1.95945
C          1.10434       -2.94738       -1.09836
C         -0.15072       -3.74449       -0.73769
C         -0.98045       -4.17899       -1.98427
C         -1.27116       -2.93148       -2.84041
C         -0.01143       -2.13753       -3.19441
C         -2.28876       -4.83114       -1.51130
C         -1.92010       -6.27979       -1.22094
N         -0.62112       -6.54021       -1.85817
C         -0.31868       -5.37421       -2.72638
C         -0.83067       -5.68596       -4.15159
O         -0.27678       -4.78593       -5.10623
H          1.04198       -0.71748        0.75908
H          0.41668        0.88271        0.35973
H          1.90705        0.30893       -0.40543
H         -0.87408       -0.91284       -0.79073
H         -0.13551        0.23429       -1.89556
H          1.75738       -1.31068       -2.31677
H          1.79918       -3.59616       -1.64543
H          1.63145       -2.66340       -0.18165
H         -0.77880       -3.13055       -0.07930
H          0.14906       -4.60818       -0.13324
H         -1.96102       -2.27504       -2.29422
H         -1.80348       -3.19662       -3.76030
H         -0.29188       -1.25478       -3.78154
H          0.63296       -2.74262       -3.84216
H         -2.71895       -4.33816       -0.63288
H         -3.04646       -4.80016       -2.30436
H         -2.68161       -6.96234       -1.61173
H         -1.84301       -6.45279       -0.14184
H          0.09200       -6.58830       -1.12938
H          0.76687       -5.24020       -2.78791
H         -0.51569       -6.69362       -4.44733
H         -1.92226       -5.64115       -4.21914
H         -0.58259       -5.08439       -5.97985

--Link1--
%chk=JID_4374.chk
%mem=8GB
%nprocshared=4
# B3LYP/6-311++G(d,p) empiricaldispersion=gd3bj scf=xqc pop=npa geom=check

CID_130566297_JID_4374_Energie_neutraal

0 1

--Link1--
%chk=JID_4374.chk
%mem=8GB
%nprocshared=4
# B3LYP/6-311++G(d,p) empiricaldispersion=gd3bj scf=xqc pop=npa geom=check

CID_130566297_JID_4374_Energie_kation

1 2

--Link1--
%chk=JID_4374.chk
%mem=8GB
%nprocshared=4
# B3LYP/6-311++G(d,p) empiricaldispersion=gd3bj scf=xqc pop=npa geom=check

CID_130566297_JID_4374_Energie_anion

-1 2
