%chk=JID_8441.chk
%mem=8GB
%nprocshared=4
# opt freq B3LYP/6-31G(d) empiricaldispersion=gd3bj scf=xqc

CID_153013791_JID_8441_neutraal

0 1
C          0.94298        0.05835        0.05783
N         -0.08254        0.83047        0.17396
C         -0.03058        2.26183       -0.26778
C          0.14037        3.17525        0.94810
C         -1.14363        3.49779        1.74618
N         -2.22206        2.50553        1.59998
C         -1.81799        1.12319        1.93244
C         -1.38005        0.31356        0.70607
C         -1.74677        4.82518        1.26545
N         -1.71210        5.95316        1.90145
C         -2.66740        7.03146        1.51776
C         -1.94493        8.30221        1.10791
C         -1.91257        9.34722        2.22183
C         -1.55501        8.80888        3.60531
C         -0.38906        7.84384        3.57715
S         -0.80145        6.13772        3.32215
O         -1.71845        5.69178        4.34656
O          0.42629        5.41612        3.05410
H          0.88279       -0.99669        0.36593
H          1.88789        0.44942       -0.34930
H          0.82933        2.37083       -0.93875
H         -0.93382        2.48068       -0.84706
H          0.58331        4.11514        0.59366
H          0.87523        2.73306        1.63482
H         -0.90354        3.53253        2.81057
H         -2.98555        2.74221        2.25020
H         -2.70229        0.62146        2.34500
H         -1.06011        1.10706        2.72568
H         -2.11397        0.37488       -0.10517
H         -1.25599       -0.74063        0.97777
H         -2.28503        4.79837        0.30029
H         -3.25654        6.67126        0.66561
H         -3.37225        7.17098        2.34406
H         -2.47369        8.75318        0.25824
H         -0.92843        8.09443        0.75084
H         -2.89014        9.84135        2.28634
H         -1.19637       10.12901        1.93908
H         -2.43153        8.35143        4.07740
H         -1.28955        9.66946        4.23212
H          0.10911        7.86106        4.55424
H          0.36236        8.12693        2.83274

--Link1--
%chk=JID_8441.chk
%mem=8GB
%nprocshared=4
# B3LYP/6-311++G(d,p) empiricaldispersion=gd3bj scf=xqc pop=npa geom=check

CID_153013791_JID_8441_Energie_neutraal

0 1

--Link1--
%chk=JID_8441.chk
%mem=8GB
%nprocshared=4
# B3LYP/6-311++G(d,p) empiricaldispersion=gd3bj scf=xqc pop=npa geom=check

CID_153013791_JID_8441_Energie_kation

1 2

--Link1--
%chk=JID_8441.chk
%mem=8GB
%nprocshared=4
# B3LYP/6-311++G(d,p) empiricaldispersion=gd3bj scf=xqc pop=npa geom=check

CID_153013791_JID_8441_Energie_anion

-1 2
