%chk=JID_9320.chk
%mem=8GB
%nprocshared=4
# opt freq B3LYP/6-31G(d) empiricaldispersion=gd3bj scf=xqc

CID_127247572_JID_9320_neutraal

0 1
C          2.62500       -0.32100        0.00300
C          1.18993       -0.26258       -0.39985
C          0.33430       -1.34678       -0.44815
S         -1.22951       -0.93393       -1.00400
C         -0.81380        0.72078       -1.12286
C          0.51356        0.93400       -0.80845
C         -1.76845        1.68632       -1.63670
O         -1.59281        2.21631       -2.73416
N         -2.87304        2.02761       -0.83756
C         -3.97095        2.75273       -1.47103
C         -4.57881        3.80109       -0.54835
C         -4.98601        3.19389        0.79022
C         -3.84267        2.41980        1.45961
C         -3.14580        1.45430        0.48767
C         -2.90265        3.33753        2.21530
N         -3.09230        3.64312        3.48518
C         -2.10388        4.50085        3.92228
C         -1.15972        4.84463        2.98237
S         -1.51678        4.07121        1.49899
H          3.26018        0.08679       -0.78995
H          2.78646        0.26498        0.91347
H          2.94447       -1.34975        0.19833
H          0.55884       -2.37688       -0.20555
H          0.98014        1.91063       -0.87455
H         -4.72708        2.00784       -1.74792
H         -3.64587        3.23649       -2.39755
H         -5.45620        4.24802       -1.02983
H         -3.86207        4.61378       -0.38782
H         -5.36956        3.98042        1.45140
H         -5.81921        2.50084        0.61342
H         -4.29887        1.79087        2.23893
H         -2.23068        1.06849        0.94612
H         -3.80498        0.59508        0.30867
H         -2.12037        4.84906        4.94780
H         -0.30417        5.49455        3.09346

--Link1--
%chk=JID_9320.chk
%mem=8GB
%nprocshared=4
# B3LYP/6-311++G(d,p) empiricaldispersion=gd3bj scf=xqc pop=npa geom=check

CID_127247572_JID_9320_Energie_neutraal

0 1

--Link1--
%chk=JID_9320.chk
%mem=8GB
%nprocshared=4
# B3LYP/6-311++G(d,p) empiricaldispersion=gd3bj scf=xqc pop=npa geom=check

CID_127247572_JID_9320_Energie_kation

1 2

--Link1--
%chk=JID_9320.chk
%mem=8GB
%nprocshared=4
# B3LYP/6-311++G(d,p) empiricaldispersion=gd3bj scf=xqc pop=npa geom=check

CID_127247572_JID_9320_Energie_anion

-1 2
