%chk=JID_8143.chk
%mem=8GB
%nprocshared=4
# opt freq B3LYP/6-31G(d) empiricaldispersion=gd3bj scf=xqc

CID_83221517_JID_8143_neutraal

0 1
C          1.08758        0.04136        0.02487
C          0.88610        1.54718        0.05560
C          1.22912        2.26056       -1.26206
C          0.67455        3.68606       -1.22955
C          1.53650        4.40488       -2.23755
C          2.91800        3.80579       -1.99892
N          2.68114        2.41961       -1.53045
C          3.26989        1.37344       -2.39661
C          2.73499        1.39916       -3.84878
C          4.82921        1.38623       -2.46246
C          5.66288        0.84707       -1.26063
C          5.28802       -0.60037       -0.89474
C          7.15114        0.78014       -1.72867
O          8.10915        1.27482       -1.14758
O          7.35975        0.05892       -2.84935
N          5.64129        1.81259       -0.13109
C          4.85526        1.45152        1.03191
C          3.67730        4.59221       -0.92745
H          0.57780       -0.40876       -0.83256
H          0.67770       -0.40884        0.93498
H          2.14381       -0.22336       -0.01876
H         -0.17021        1.73357        0.29009
H          1.46259        1.97646        0.88420
H          0.72311        1.73984       -2.08209
H         -0.38566        3.72380       -1.49965
H          0.78886        4.14235       -0.23845
H          1.49913        5.49137       -2.11349
H          1.19327        4.16620       -3.25196
H          3.49676        3.87133       -2.92583
H          2.98011        0.39910       -1.99388
H          3.06177        2.28949       -4.39472
H          3.10400        0.52652       -4.40071
H          1.64433        1.35316       -3.89845
H          5.10472        0.78474       -3.34051
H          5.18561        2.39373       -2.71755
H          5.32314       -1.25178       -1.77610
H          5.99038       -1.01931       -0.16397
H          4.28284       -0.68515       -0.47759
H          8.32995        0.11329       -2.97882
H          6.60618        1.99613        0.16416
H          5.27255        0.58485        1.55352
H          4.85752        2.28757        1.73877
H          3.81361        1.25427        0.77798
H          4.70455        4.23146       -0.83157
H          3.73235        5.65300       -1.19586
H          3.19981        4.52154        0.05585

--Link1--
%chk=JID_8143.chk
%mem=8GB
%nprocshared=4
# B3LYP/6-311++G(d,p) empiricaldispersion=gd3bj scf=xqc pop=npa geom=check

CID_83221517_JID_8143_Energie_neutraal

0 1

--Link1--
%chk=JID_8143.chk
%mem=8GB
%nprocshared=4
# B3LYP/6-311++G(d,p) empiricaldispersion=gd3bj scf=xqc pop=npa geom=check

CID_83221517_JID_8143_Energie_kation

1 2

--Link1--
%chk=JID_8143.chk
%mem=8GB
%nprocshared=4
# B3LYP/6-311++G(d,p) empiricaldispersion=gd3bj scf=xqc pop=npa geom=check

CID_83221517_JID_8143_Energie_anion

-1 2
