%chk=JID_10984.chk
%mem=8GB
%nprocshared=4
# opt freq B3LYP/6-31G(d) empiricaldispersion=gd3bj scf=xqc

CID_124194590_JID_10984_neutraal

0 1
C          1.07118       -0.05159        0.04767
C          0.21706       -0.31910       -1.18399
C          0.72311       -1.48538       -1.98369
C          0.78860       -2.81893       -1.63851
C          1.34301       -3.65576       -2.66918
C          1.54588       -5.05955       -2.71084
C          2.17088       -5.68441       -3.81717
C          2.55392       -4.91253       -4.92592
C          3.12950       -5.57087       -6.02958
C          3.32327       -6.94092       -5.98614
N          2.99221       -7.70393       -4.93018
C          2.42966       -7.06138       -3.87988
C          2.35512       -3.51069       -4.89371
C          1.73316       -2.90198       -3.77736
S          1.34052       -1.23531       -3.55539
O          2.71858       -2.76308       -6.00154
C          4.01328       -2.19002       -5.80542
O          1.18013       -5.83901       -1.62568
C         -0.20415       -6.18641       -1.72213
O         -1.11878       -0.61803       -0.78580
H          1.07910       -0.91167        0.72709
H          0.66245        0.79068        0.61643
H          2.10567        0.18001       -0.22575
H          0.17171        0.59027       -1.79330
H          0.45123       -3.20326       -0.68356
H          3.42395       -5.02235       -6.91923
H          3.76538       -7.47105       -6.82466
H          2.17709       -7.71531       -3.04796
H          3.97003       -1.35242       -5.10305
H          4.74276       -2.93264       -5.46287
H          4.35492       -1.80305       -6.77014
H         -0.42451       -6.69972       -2.66463
H         -0.43258       -6.87320       -0.90171
H         -0.84364       -5.30467       -1.61249
H         -1.08536       -1.37743       -0.18227

--Link1--
%chk=JID_10984.chk
%mem=8GB
%nprocshared=4
# B3LYP/6-311++G(d,p) empiricaldispersion=gd3bj scf=xqc pop=npa geom=check

CID_124194590_JID_10984_Energie_neutraal

0 1

--Link1--
%chk=JID_10984.chk
%mem=8GB
%nprocshared=4
# B3LYP/6-311++G(d,p) empiricaldispersion=gd3bj scf=xqc pop=npa geom=check

CID_124194590_JID_10984_Energie_kation

1 2

--Link1--
%chk=JID_10984.chk
%mem=8GB
%nprocshared=4
# B3LYP/6-311++G(d,p) empiricaldispersion=gd3bj scf=xqc pop=npa geom=check

CID_124194590_JID_10984_Energie_anion

-1 2
