%chk=JID_3591.chk
%mem=8GB
%nprocshared=4
# opt freq B3LYP/6-31G(d) empiricaldispersion=gd3bj scf=xqc

CID_23622846_JID_3591_neutraal

0 1
C          0.93729       -0.01841       -0.07569
C          0.76403        0.61388        1.29648
C          1.13482        2.09831        1.33648
C          0.32153        3.00906        0.41090
C         -1.19566        2.98173        0.62173
C         -1.67314        3.34844        2.03058
C         -1.25374        4.73475        2.52934
C         -1.68502        5.91741        1.64969
C         -3.19817        6.03004        1.35551
N         -3.97453        6.17435        2.59779
C         -5.41080        6.10855        2.35831
N         -3.38456        7.11169        0.31761
O         -3.45293        8.24774        0.80254
H          0.23420        0.39966       -0.80196
H          0.75253       -1.09595       -0.01852
H          1.95431        0.13109       -0.45168
H         -0.26570        0.46687        1.63964
H          1.40549        0.08024        2.00835
H          1.04460        2.45348        2.36973
H          2.19544        2.20377        1.07491
H          0.68681        4.03620        0.52866
H          0.53045        2.74332       -0.63240
H         -1.65753        3.65874       -0.10666
H         -1.57810        1.98397        0.37561
H         -2.76642        3.26854        2.05802
H         -1.30901        2.59967        2.74407
H         -1.64599        4.87184        3.54413
H         -0.16265        4.76652        2.63588
H         -1.33954        6.84112        2.13536
H         -1.13259        5.86582        0.70184
H         -3.52180        5.11861        0.83887
H         -3.71960        5.42895        3.24008
H         -5.69710        5.16147        1.88930
H         -5.93798        6.17802        3.31522
H         -5.76247        6.93830        1.73782

--Link1--
%chk=JID_3591.chk
%mem=8GB
%nprocshared=4
# B3LYP/6-311++G(d,p) empiricaldispersion=gd3bj scf=xqc pop=npa geom=check

CID_23622846_JID_3591_Energie_neutraal

0 1

--Link1--
%chk=JID_3591.chk
%mem=8GB
%nprocshared=4
# B3LYP/6-311++G(d,p) empiricaldispersion=gd3bj scf=xqc pop=npa geom=check

CID_23622846_JID_3591_Energie_kation

1 2

--Link1--
%chk=JID_3591.chk
%mem=8GB
%nprocshared=4
# B3LYP/6-311++G(d,p) empiricaldispersion=gd3bj scf=xqc pop=npa geom=check

CID_23622846_JID_3591_Energie_anion

-1 2
