%chk=JID_4870.chk
%mem=8GB
%nprocshared=4
# opt freq B3LYP/6-31G(d) empiricaldispersion=gd3bj scf=xqc

CID_59337696_JID_4870_neutraal

0 1
C          0.93514       -0.04715        0.05975
C          0.31370       -0.17595       -1.32758
C          0.81311       -1.40342       -2.08335
N         -1.13962       -0.12890       -1.27529
C         -1.87069        0.96607       -1.94177
C         -3.34756        0.68905       -1.68444
C         -4.31701        1.82567       -1.47093
C         -4.38355        1.01196       -2.73331
C         -3.37790       -0.56086       -0.87874
C         -4.45004       -1.28012       -0.35806
C         -4.19691       -2.43957        0.37274
C         -2.88143       -2.86803        0.57512
C         -1.80636       -2.14208        0.05007
C         -2.04977       -0.98776       -0.67655
H          0.73616       -0.91733        0.69067
H          0.54721        0.83600        0.57912
H          2.02268        0.05909       -0.01708
H          0.65556        0.69746       -1.89934
H          0.60061       -2.33600       -1.55399
H          0.34506       -1.46818       -3.07176
H          1.89750       -1.34849       -2.22810
H         -1.57135        1.92968       -1.51416
H         -1.65154        0.96245       -3.01554
H         -5.10906        1.70120       -0.74145
H         -3.94507        2.84143       -1.54049
H         -4.05646        1.47775       -3.65580
H         -5.22065        0.33515       -2.86051
H         -5.46883       -0.94405       -0.51812
H         -5.02298       -3.01210        0.78596
H         -2.69055       -3.77342        1.14563
H         -0.79950       -2.49929        0.22315

--Link1--
%chk=JID_4870.chk
%mem=8GB
%nprocshared=4
# B3LYP/6-311++G(d,p) empiricaldispersion=gd3bj scf=xqc pop=npa geom=check

CID_59337696_JID_4870_Energie_neutraal

0 1

--Link1--
%chk=JID_4870.chk
%mem=8GB
%nprocshared=4
# B3LYP/6-311++G(d,p) empiricaldispersion=gd3bj scf=xqc pop=npa geom=check

CID_59337696_JID_4870_Energie_kation

1 2

--Link1--
%chk=JID_4870.chk
%mem=8GB
%nprocshared=4
# B3LYP/6-311++G(d,p) empiricaldispersion=gd3bj scf=xqc pop=npa geom=check

CID_59337696_JID_4870_Energie_anion

-1 2
