%chk=JID_4306.chk
%mem=8GB
%nprocshared=4
# opt freq B3LYP/6-31G(d) empiricaldispersion=gd3bj scf=xqc

CID_91164624_JID_4306_neutraal

0 1
C          0.92479        0.03943        0.05280
C          1.38360        1.39090       -0.47101
C          2.32646        1.28889       -1.67058
C          1.62670        0.95262       -2.95580
C          2.47231        0.52666       -4.12761
N          1.47717       -0.40204       -3.52297
C          2.09538       -1.58487       -2.85015
C          0.34546       -0.75877       -4.46229
C         -0.90677        0.12366       -4.40200
C         -1.04513        1.18737       -5.52830
C         -1.09763        0.51312       -6.90948
C         -2.35132        1.96317       -5.28378
O          0.10211        2.04288       -5.42430
C          0.13680        3.17729       -6.28745
H          0.27729       -0.46288       -0.67147
H          0.35008        0.16922        0.97548
H          1.77682       -0.61108        0.27303
H          0.50850        2.00155       -0.72180
H          1.91182        1.90744        0.33958
H          2.78985        2.27448       -1.81077
H          3.15130        0.60673       -1.44380
H          0.86908        1.69990       -3.16336
H          2.26128        0.96379       -5.09720
H          3.52704        0.32896       -3.96432
H          1.36424       -1.99395       -2.14884
H          2.33283       -2.32504       -3.62072
H          3.01241       -1.30780       -2.32660
H          0.76845       -0.85891       -5.46620
H          0.03212       -1.76782       -4.16428
H         -1.77674       -0.54455       -4.47749
H         -0.99311        0.59507       -3.41599
H         -1.81446       -0.31446       -6.92558
H         -1.40276        1.22228       -7.68717
H         -0.11525        0.13694       -7.21241
H         -2.29251        2.54474       -4.35725
H         -2.55727        2.67347       -6.09196
H         -3.21121        1.28747       -5.21945
H          0.09031        2.88273       -7.33832
H         -0.66273        3.88185       -6.04607
H          1.09004        3.68825       -6.12335

--Link1--
%chk=JID_4306.chk
%mem=8GB
%nprocshared=4
# B3LYP/6-311++G(d,p) empiricaldispersion=gd3bj scf=xqc pop=npa geom=check

CID_91164624_JID_4306_Energie_neutraal

0 1

--Link1--
%chk=JID_4306.chk
%mem=8GB
%nprocshared=4
# B3LYP/6-311++G(d,p) empiricaldispersion=gd3bj scf=xqc pop=npa geom=check

CID_91164624_JID_4306_Energie_kation

1 2

--Link1--
%chk=JID_4306.chk
%mem=8GB
%nprocshared=4
# B3LYP/6-311++G(d,p) empiricaldispersion=gd3bj scf=xqc pop=npa geom=check

CID_91164624_JID_4306_Energie_anion

-1 2
