%chk=JID_6226.chk
%mem=8GB
%nprocshared=4
# opt freq B3LYP/6-31G(d) empiricaldispersion=gd3bj scf=xqc

CID_124096075_JID_6226_neutraal

0 1
C          0.94387       -0.08075       -0.01812
C          0.12478       -1.31445        0.33710
C          0.74060       -2.14631        1.46930
C          0.65115       -1.52140        2.86760
C         -0.73775       -1.34504        3.52778
C         -1.90736       -2.18016        2.99352
C         -3.07671       -2.27759        3.98394
C         -3.68963       -0.91944        4.34159
C         -4.98202       -1.02205        5.15378
S         -4.72784       -1.67781        6.82956
O          1.60263       -2.01825        3.81720
C          1.82124       -3.39337        4.14201
C          0.54752       -4.22394        4.32594
C          2.73142       -4.06460        3.10337
C          2.54724       -3.36292        5.51818
C          3.85944       -2.58379        5.53617
H          0.95745        0.64274        0.80185
H          0.51137        0.41708       -0.89205
H          1.97683       -0.34990       -0.26018
H         -0.89621       -1.00800        0.57592
H          0.06188       -1.94770       -0.55630
H          0.27171       -3.13506        1.46991
H          1.79469       -2.31773        1.22111
H          1.01001       -0.49200        2.74399
H         -0.63968       -1.49375        4.61025
H         -1.02376       -0.29095        3.40568
H         -2.27931       -1.74741        2.05937
H         -1.59185       -3.19851        2.75998
H         -3.84943       -2.91621        3.53831
H         -2.72756       -2.78797        4.88854
H         -2.96224       -0.30299        4.88327
H         -3.91987       -0.38424        3.41170
H         -5.42104       -0.02432        5.25629
H         -5.71298       -1.65256        4.63741
H         -4.41749       -2.93066        6.46645
H          0.04041       -4.39346        3.37460
H          0.77620       -5.21383        4.73758
H         -0.15867       -3.73460        5.00304
H          3.54186       -3.39776        2.79061
H          3.16819       -4.99034        3.49414
H          2.18033       -4.33679        2.19842
H          1.88267       -2.89551        6.25727
H          2.74278       -4.38476        5.86687
H          3.71692       -1.54683        5.21770
H          4.26675       -2.56676        6.55252
H          4.60972       -3.04682        4.88888

--Link1--
%chk=JID_6226.chk
%mem=8GB
%nprocshared=4
# B3LYP/6-311++G(d,p) empiricaldispersion=gd3bj scf=xqc pop=npa geom=check

CID_124096075_JID_6226_Energie_neutraal

0 1

--Link1--
%chk=JID_6226.chk
%mem=8GB
%nprocshared=4
# B3LYP/6-311++G(d,p) empiricaldispersion=gd3bj scf=xqc pop=npa geom=check

CID_124096075_JID_6226_Energie_kation

1 2

--Link1--
%chk=JID_6226.chk
%mem=8GB
%nprocshared=4
# B3LYP/6-311++G(d,p) empiricaldispersion=gd3bj scf=xqc pop=npa geom=check

CID_124096075_JID_6226_Energie_anion

-1 2
