%chk=JID_9967.chk
%mem=8GB
%nprocshared=4
# opt freq B3LYP/6-31G(d) empiricaldispersion=gd3bj scf=xqc

CID_81259339_JID_9967_neutraal

0 1
C          1.44200        0.04700       -0.00300
C          0.65934        1.19306        0.06666
C         -0.71564        1.04365        0.11453
N         -1.34231       -0.15398        0.09979
C         -0.56370       -1.26405        0.02475
C          0.82632       -1.20130       -0.02583
C         -1.27750       -2.59420        0.04724
C         -1.83212       -2.90177        1.44051
N         -2.94898       -1.99786        1.75406
S         -3.65094       -2.08057        3.27259
O         -2.64115       -2.49896        4.22022
O         -4.40376       -0.85955        3.45797
C         -4.81380       -3.40317        3.06765
C         -4.53487       -4.66467        3.60497
C         -5.46658       -5.69369        3.46275
C         -6.67131       -5.45864        2.79644
C         -6.93693       -4.19254        2.27743
C         -6.01937       -3.15772        2.40770
O         -8.10559       -3.92551        1.62820
H          2.52500        0.12486       -0.03863
H          1.10960        2.17911        0.08541
H         -1.37031        1.90895        0.17087
H          1.42804       -2.10289       -0.07505
H         -2.08576       -2.57370       -0.69419
H         -0.58885       -3.39192       -0.25525
H         -2.19339       -3.93505        1.46472
H         -1.03654       -2.78875        2.18514
H         -2.84492       -1.03171        1.41561
H         -3.60338       -4.84961        4.13533
H         -5.25657       -6.67678        3.87726
H         -7.38808       -6.26810        2.69645
H         -6.24465       -2.17424        2.00346
H         -8.66551       -4.71874        1.65019

--Link1--
%chk=JID_9967.chk
%mem=8GB
%nprocshared=4
# B3LYP/6-311++G(d,p) empiricaldispersion=gd3bj scf=xqc pop=npa geom=check

CID_81259339_JID_9967_Energie_neutraal

0 1

--Link1--
%chk=JID_9967.chk
%mem=8GB
%nprocshared=4
# B3LYP/6-311++G(d,p) empiricaldispersion=gd3bj scf=xqc pop=npa geom=check

CID_81259339_JID_9967_Energie_kation

1 2

--Link1--
%chk=JID_9967.chk
%mem=8GB
%nprocshared=4
# B3LYP/6-311++G(d,p) empiricaldispersion=gd3bj scf=xqc pop=npa geom=check

CID_81259339_JID_9967_Energie_anion

-1 2
