%chk=JID_10718.chk
%mem=8GB
%nprocshared=4
# opt freq B3LYP/6-31G(d) empiricaldispersion=gd3bj scf=xqc

CID_105088627_JID_10718_neutraal

0 1
C          1.06668       -0.07371        0.01103
C          0.31580        1.21340        0.33246
C          0.83736        2.43926       -0.42559
N          0.63082        2.29199       -1.86358
C          1.19773        3.40380       -2.65555
C          2.75558        3.37733       -2.77974
C          3.41115        2.01853       -2.92769
C          4.12847        1.46500       -1.85736
C          4.70439        0.19733       -1.96084
C          4.57447       -0.54341       -3.13808
C          3.88670        0.01840       -4.21967
C          3.31536        1.29010       -4.11784
C          5.19060       -1.90509       -3.26096
C          0.52405        3.51800       -4.02509
C          0.40660        4.75122       -4.69322
N         -0.16646        4.87636       -5.91993
C         -0.65293        3.76492       -6.50683
C         -0.59595        2.51212       -5.93363
C          0.00021        2.39177       -4.68326
C          0.87556        6.04528       -4.08995
H          0.91724       -0.38582       -1.02653
H          0.70648       -0.88452        0.65265
H          2.13965        0.04392        0.18989
H         -0.75194        1.07089        0.12599
H          0.40426        1.40857        1.40807
H          0.29446        3.32205       -0.06822
H          1.89527        2.58400       -0.18424
H          1.06731        1.42576       -2.17951
H          0.93029        4.32612       -2.12405
H          3.16697        3.85400       -1.87917
H          3.09584        4.00352       -3.61405
H          4.24036        2.01466       -0.92534
H          5.25119       -0.20702       -1.11206
H          3.79245       -0.53276       -5.15283
H          2.79643        1.70414       -4.97917
H          6.04171       -1.87242       -3.94806
H          5.54659       -2.27178       -2.29227
H          4.45305       -2.62353       -3.63325
H         -1.10887        3.91671       -7.48044
H         -1.00883        1.64872       -6.44180
H          0.04366        1.40832       -4.22232
H          0.73226        6.87395       -4.79209
H          0.30138        6.27546       -3.18742
H          1.94051        6.00415       -3.84773

--Link1--
%chk=JID_10718.chk
%mem=8GB
%nprocshared=4
# B3LYP/6-311++G(d,p) empiricaldispersion=gd3bj scf=xqc pop=npa geom=check

CID_105088627_JID_10718_Energie_neutraal

0 1

--Link1--
%chk=JID_10718.chk
%mem=8GB
%nprocshared=4
# B3LYP/6-311++G(d,p) empiricaldispersion=gd3bj scf=xqc pop=npa geom=check

CID_105088627_JID_10718_Energie_kation

1 2

--Link1--
%chk=JID_10718.chk
%mem=8GB
%nprocshared=4
# B3LYP/6-311++G(d,p) empiricaldispersion=gd3bj scf=xqc pop=npa geom=check

CID_105088627_JID_10718_Energie_anion

-1 2
