%chk=JID_5739.chk
%mem=8GB
%nprocshared=4
# opt freq B3LYP/6-31G(d) empiricaldispersion=gd3bj scf=xqc

CID_65321048_JID_5739_neutraal

0 1
C          2.47000        0.00000        0.00400
C          1.59787        1.17951        0.45944
C          0.20000        0.58725        0.58751
C         -0.96306        1.55779        0.45646
C         -2.26838        0.75768        0.41713
C         -2.22617       -0.37284       -0.62607
N         -1.05745       -1.24338       -0.43677
C          0.16873       -0.45447       -0.53795
C          1.50855       -1.15335       -0.31108
C         -1.08971       -2.46823       -1.25231
C         -1.10039       -2.45600       -2.80721
C         -2.47214       -2.25117       -3.44342
C         -2.17185       -1.75863       -4.85578
C         -0.67533       -1.48979       -4.88293
N         -0.28393       -1.43736       -3.47846
H          3.18638       -0.29309        0.77850
H          3.04340        0.28171       -0.88624
H          1.94978        1.60466        1.40465
H          1.62558        1.97479       -0.29470
H          0.12704        0.08352        1.56385
H         -0.86841        2.14900       -0.46249
H         -0.97493        2.26152        1.29591
H         -3.10597        1.42988        0.19912
H         -2.45611        0.32567        1.40864
H         -3.14894       -0.95641       -0.52607
H         -2.22101        0.07745       -1.62580
H          0.21019        0.06923       -1.50258
H          1.45599       -1.83340        0.54850
H          1.84134       -1.73240       -1.17756
H         -0.22862       -3.07732       -0.94670
H         -1.95541       -3.05879       -0.92183
H         -0.73356       -3.44298       -3.12629
H         -3.04834       -3.18242       -3.46229
H         -3.07767       -1.50553       -2.92233
H         -2.74263       -0.84725       -5.06577
H         -2.44753       -2.50853       -5.60484
H         -0.43573       -0.55656       -5.40063
H         -0.15120       -2.30722       -5.39199
H          0.70683       -1.63976       -3.36602

--Link1--
%chk=JID_5739.chk
%mem=8GB
%nprocshared=4
# B3LYP/6-311++G(d,p) empiricaldispersion=gd3bj scf=xqc pop=npa geom=check

CID_65321048_JID_5739_Energie_neutraal

0 1

--Link1--
%chk=JID_5739.chk
%mem=8GB
%nprocshared=4
# B3LYP/6-311++G(d,p) empiricaldispersion=gd3bj scf=xqc pop=npa geom=check

CID_65321048_JID_5739_Energie_kation

1 2

--Link1--
%chk=JID_5739.chk
%mem=8GB
%nprocshared=4
# B3LYP/6-311++G(d,p) empiricaldispersion=gd3bj scf=xqc pop=npa geom=check

CID_65321048_JID_5739_Energie_anion

-1 2
