%chk=JID_6968.chk
%mem=8GB
%nprocshared=4
# opt freq B3LYP/6-31G(d) empiricaldispersion=gd3bj scf=xqc

CID_58429754_JID_6968_neutraal

0 1
C          1.08927        0.01071       -0.04377
C          0.20995       -0.62012       -1.11992
C          0.56033       -2.09124       -1.35570
O         -1.18598       -0.32212       -0.89468
C         -1.90365       -1.25860       -0.19927
C         -1.72471       -1.36188        1.18389
C         -2.44607       -2.30053        1.92124
C         -3.36878       -3.12638        1.28444
C         -3.60297       -2.98765       -0.09010
C         -2.88097       -2.04164       -0.83652
C         -3.22194       -1.93419       -2.29511
N         -4.25809       -2.50981       -2.84742
C         -5.10305       -3.24860       -2.05892
C         -6.38406       -3.38566       -2.43034
C         -4.57102       -3.89096       -0.80236
N         -2.45422       -1.17377       -3.13667
H          1.04618       -0.54962        0.89448
H          0.76720        1.03501        0.17033
H          2.13637        0.03228       -0.36324
H          0.44255       -0.09449       -2.05485
H          0.41392       -2.69527       -0.45435
H         -0.06363       -2.52227       -2.14458
H          1.60827       -2.19370       -1.65655
H         -1.03322       -0.70507        1.70151
H         -2.28892       -2.38543        2.99376
H         -3.91584       -3.86618        1.86467
H         -6.74164       -2.91691       -3.34143
H         -7.09294       -3.96126       -1.84763
H         -4.05033       -4.81996       -1.06566
H         -5.39622       -4.14839       -0.12681
H         -2.03258       -0.36153       -2.69549
H         -2.95718       -0.94995       -3.98843

--Link1--
%chk=JID_6968.chk
%mem=8GB
%nprocshared=4
# B3LYP/6-311++G(d,p) empiricaldispersion=gd3bj scf=xqc pop=npa geom=check

CID_58429754_JID_6968_Energie_neutraal

0 1

--Link1--
%chk=JID_6968.chk
%mem=8GB
%nprocshared=4
# B3LYP/6-311++G(d,p) empiricaldispersion=gd3bj scf=xqc pop=npa geom=check

CID_58429754_JID_6968_Energie_kation

1 2

--Link1--
%chk=JID_6968.chk
%mem=8GB
%nprocshared=4
# B3LYP/6-311++G(d,p) empiricaldispersion=gd3bj scf=xqc pop=npa geom=check

CID_58429754_JID_6968_Energie_anion

-1 2
