%chk=JID_6245.chk
%mem=8GB
%nprocshared=4
# opt freq B3LYP/6-31G(d) empiricaldispersion=gd3bj scf=xqc

CID_82509142_JID_6245_neutraal

0 1
C          1.04976       -0.02586        0.08279
C          0.42608        0.50964        1.39059
C          0.83531        1.99508        1.51198
C         -1.11209        0.46261        1.27532
C          0.87423       -0.35635        2.58069
C          0.64264       -1.74561        2.57520
C          1.03909       -2.57197        3.64627
C          0.81645       -3.95259        3.63351
C          1.22620       -4.71610        4.71667
N          1.83327       -4.14506        5.77697
N          2.05602       -2.78931        5.79359
C          1.67493       -2.01623        4.76312
C          1.89952       -0.64718        4.77607
C          1.51053        0.17539        3.70953
C          1.02171       -6.20949        4.74845
N         -0.38756       -6.59892        4.62914
H          0.78063        0.60685       -0.77120
H          0.71218       -1.04025       -0.15531
H          2.14400       -0.04917        0.14869
H          0.51093        2.56736        0.63451
H          0.38063        2.46998        2.38912
H          1.92318        2.10772        1.58799
H         -1.48110       -0.55200        1.08858
H         -1.58807        0.82085        2.19590
H         -1.46611        1.09169        0.45027
H          0.14142       -2.20443        1.72450
H          0.32311       -4.43342        2.79399
H          2.39129       -0.20495        5.63953
H          1.72217        1.23761        3.79811
H          1.59223       -6.66103        3.92924
H          1.42280       -6.61529        5.68433
H         -0.45558       -7.60902        4.74572
H         -0.89544       -6.19540        5.41789

--Link1--
%chk=JID_6245.chk
%mem=8GB
%nprocshared=4
# B3LYP/6-311++G(d,p) empiricaldispersion=gd3bj scf=xqc pop=npa geom=check

CID_82509142_JID_6245_Energie_neutraal

0 1

--Link1--
%chk=JID_6245.chk
%mem=8GB
%nprocshared=4
# B3LYP/6-311++G(d,p) empiricaldispersion=gd3bj scf=xqc pop=npa geom=check

CID_82509142_JID_6245_Energie_kation

1 2

--Link1--
%chk=JID_6245.chk
%mem=8GB
%nprocshared=4
# B3LYP/6-311++G(d,p) empiricaldispersion=gd3bj scf=xqc pop=npa geom=check

CID_82509142_JID_6245_Energie_anion

-1 2
