%chk=JID_7947.chk
%mem=8GB
%nprocshared=4
# opt freq B3LYP/6-31G(d) empiricaldispersion=gd3bj scf=xqc

CID_11225875_JID_7947_neutraal

0 1
C         -1.50500        0.02200       -0.20100
C         -0.73080        1.16694        0.44510
C          0.72752        1.19382       -0.02157
N          1.36724       -0.10007        0.21934
C          0.68715       -1.20280       -0.45692
C         -0.77095       -1.29987       -0.00375
C          2.82421       -0.08617        0.05277
C          3.44359       -0.31890       -1.33523
C          3.22905        0.78330       -2.36981
N          3.80659        2.04101       -1.90661
C          3.87833        3.04011       -2.87659
N          5.10256        3.55612       -3.07940
C          5.21597        4.54250       -4.00318
C          4.17369        5.02304       -4.79087
C          2.91037        4.51744       -4.50633
C          2.75956        3.50681       -3.55440
N          4.32829        6.12222       -5.64147
H         -2.51192       -0.03931        0.22611
H         -1.62059        0.21926       -1.27384
H         -1.21345        2.12104        0.20469
H         -0.76413        1.05837        1.53676
H          0.75693        1.46751       -1.08044
H          1.24490        1.98439        0.53489
H          1.18088       -2.15282       -0.21976
H          0.71972       -1.07672       -1.54621
H         -0.80751       -1.58214        1.05623
H         -1.28039       -2.09277       -0.56294
H          3.24194        0.82690        0.49596
H          3.20632       -0.89157        0.69521
H          4.52501       -0.45052       -1.19273
H          3.08654       -1.26935       -1.74912
H          3.72180        0.47115       -3.30033
H          2.16407        0.88957       -2.59389
H          4.77825        1.93202       -1.61330
H          6.21687        4.95412       -4.09515
H          2.03156        4.90777       -5.01042
H          1.77352        3.11830       -3.32859
H          5.26654        6.22830       -6.01619
H          3.61732        6.18831       -6.36350

--Link1--
%chk=JID_7947.chk
%mem=8GB
%nprocshared=4
# B3LYP/6-311++G(d,p) empiricaldispersion=gd3bj scf=xqc pop=npa geom=check

CID_11225875_JID_7947_Energie_neutraal

0 1

--Link1--
%chk=JID_7947.chk
%mem=8GB
%nprocshared=4
# B3LYP/6-311++G(d,p) empiricaldispersion=gd3bj scf=xqc pop=npa geom=check

CID_11225875_JID_7947_Energie_kation

1 2

--Link1--
%chk=JID_7947.chk
%mem=8GB
%nprocshared=4
# B3LYP/6-311++G(d,p) empiricaldispersion=gd3bj scf=xqc pop=npa geom=check

CID_11225875_JID_7947_Energie_anion

-1 2
