%chk=JID_3350.chk
%mem=8GB
%nprocshared=4
# opt freq B3LYP/6-31G(d) empiricaldispersion=gd3bj scf=xqc

CID_115456877_JID_3350_neutraal

0 1
C         -0.02900        0.88300        0.00000
C         -0.33622       -0.53818       -0.37307
C          1.07891       -0.13601       -0.03820
C          2.12011       -0.09332       -1.12127
C          3.51907        0.06645       -0.55918
O          4.07849       -0.86493        0.02340
N          4.17643        1.25235       -0.63555
C          3.78148        2.52385       -1.20182
C          3.27440        3.50646       -0.15831
C          2.83164        4.85633       -0.70955
C          1.80682        3.90841       -0.17568
C          4.03108        3.55307        1.15498
N          3.51069        2.56071        2.08310
H         -0.35741        1.23621        0.97109
H         -0.11931        1.61497       -0.79219
H         -0.87361       -1.14709        0.34598
H         -0.58707       -0.75166       -1.40596
H          1.46893       -0.51768        0.90084
H          2.11274       -1.04819       -1.66251
H          1.89044        0.67156       -1.86518
H          5.08705        1.21186       -0.19232
H          4.68060        2.94106       -1.66934
H          3.04632        2.37196       -1.99604
H          3.03291        5.75580       -0.13671
H          2.85741        5.02044       -1.78196
H          1.14018        3.45695       -0.89929
H          1.32188        4.16783        0.75920
H          5.10080        3.38531        0.98911
H          3.94165        4.53820        1.62650
H          3.59163        1.63373        1.66354
H          2.51365        2.71274        2.22115

--Link1--
%chk=JID_3350.chk
%mem=8GB
%nprocshared=4
# B3LYP/6-311++G(d,p) empiricaldispersion=gd3bj scf=xqc pop=npa geom=check

CID_115456877_JID_3350_Energie_neutraal

0 1

--Link1--
%chk=JID_3350.chk
%mem=8GB
%nprocshared=4
# B3LYP/6-311++G(d,p) empiricaldispersion=gd3bj scf=xqc pop=npa geom=check

CID_115456877_JID_3350_Energie_kation

1 2

--Link1--
%chk=JID_3350.chk
%mem=8GB
%nprocshared=4
# B3LYP/6-311++G(d,p) empiricaldispersion=gd3bj scf=xqc pop=npa geom=check

CID_115456877_JID_3350_Energie_anion

-1 2
