%chk=JID_2792.chk
%mem=8GB
%nprocshared=4
# opt freq B3LYP/6-31G(d) empiricaldispersion=gd3bj scf=xqc

CID_68038579_JID_2792_neutraal

0 1
C          1.05653       -0.05213        0.06393
N          0.22142       -0.84980       -0.83112
C          0.98509       -1.51186       -1.89071
C          1.93545       -2.58857       -1.36466
N          1.34675       -3.48929       -0.37062
C          0.25883       -3.07716        0.40187
O         -0.13222       -3.69817        1.39146
C         -0.55076       -1.86600       -0.08875
C          2.15649       -4.70648       -0.04468
C          2.67634       -4.88885        1.39649
N          2.44290       -6.35276        1.24799
C          1.41997       -6.03803        0.21107
H          0.42915        0.50574        0.76814
H          1.62350        0.69284       -0.50524
H          1.76487       -0.65074        0.64615
H          0.27664       -1.97286       -2.59166
H          1.54496       -0.77481       -2.47890
H          2.81107       -2.12557       -0.89459
H          2.29094       -3.19275       -2.20719
H         -1.04294       -1.40264        0.77483
H         -1.34791       -2.25420       -0.73479
H          2.96554       -4.83896       -0.77961
H          3.72427       -4.61391        1.55180
H          2.08509       -4.43906        2.20008
H          3.24931       -6.85673        0.87996
H          0.40443       -5.97699        0.61414
H          1.40783       -6.73307       -0.63439

--Link1--
%chk=JID_2792.chk
%mem=8GB
%nprocshared=4
# B3LYP/6-311++G(d,p) empiricaldispersion=gd3bj scf=xqc pop=npa geom=check

CID_68038579_JID_2792_Energie_neutraal

0 1

--Link1--
%chk=JID_2792.chk
%mem=8GB
%nprocshared=4
# B3LYP/6-311++G(d,p) empiricaldispersion=gd3bj scf=xqc pop=npa geom=check

CID_68038579_JID_2792_Energie_kation

1 2

--Link1--
%chk=JID_2792.chk
%mem=8GB
%nprocshared=4
# B3LYP/6-311++G(d,p) empiricaldispersion=gd3bj scf=xqc pop=npa geom=check

CID_68038579_JID_2792_Energie_anion

-1 2
