%chk=JID_10014.chk
%mem=8GB
%nprocshared=4
# opt freq B3LYP/6-31G(d) empiricaldispersion=gd3bj scf=xqc

CID_43436551_JID_10014_neutraal

0 1
C          2.49200        0.00400       -0.01400
C          0.98911       -0.01082       -0.00374
C          0.22152       -1.18433       -0.13695
C         -1.17998       -1.12168       -0.11258
C         -1.82601        0.10332        0.05477
C         -1.08378        1.27416        0.19994
C          0.31426        1.21166        0.18843
O         -1.82425        2.41842        0.40668
C         -1.22680        3.63413        0.18574
C         -0.81932        4.02610       -1.09095
C         -0.25205        5.28660       -1.27776
C         -0.11492        6.15779       -0.19389
C         -0.55287        5.77269        1.07944
C         -1.11757        4.50822        1.26710
C         -0.42570        6.67282        2.18747
N         -0.31998        7.40082        3.08513
S          0.96442       -2.78862       -0.33506
O         -0.05544       -3.80498       -0.20633
O          1.87560       -2.75556       -1.45364
N          1.90203       -2.95121        1.04908
H          2.88539       -0.41883        0.91456
H          2.89200       -0.54054       -0.87236
H          2.87701        1.02684       -0.09645
H         -1.78137       -2.02290       -0.21866
H         -2.91259        0.14178        0.07915
H          0.89992        2.11618        0.33681
H         -0.94204        3.35436       -1.93685
H          0.07661        5.59335       -2.26817
H          0.32634        7.14076       -0.35123
H         -1.47030        4.19593        2.24757
H          1.54047       -3.71897        1.61638
H          2.88252       -3.06188        0.78955

--Link1--
%chk=JID_10014.chk
%mem=8GB
%nprocshared=4
# B3LYP/6-311++G(d,p) empiricaldispersion=gd3bj scf=xqc pop=npa geom=check

CID_43436551_JID_10014_Energie_neutraal

0 1

--Link1--
%chk=JID_10014.chk
%mem=8GB
%nprocshared=4
# B3LYP/6-311++G(d,p) empiricaldispersion=gd3bj scf=xqc pop=npa geom=check

CID_43436551_JID_10014_Energie_kation

1 2

--Link1--
%chk=JID_10014.chk
%mem=8GB
%nprocshared=4
# B3LYP/6-311++G(d,p) empiricaldispersion=gd3bj scf=xqc pop=npa geom=check

CID_43436551_JID_10014_Energie_anion

-1 2
