%chk=JID_6847.chk
%mem=8GB
%nprocshared=4
# opt freq B3LYP/6-31G(d) empiricaldispersion=gd3bj scf=xqc

CID_116697059_JID_6847_neutraal

0 1
C          0.93171       -0.06789       -0.02698
C          0.30514        1.23588        0.44996
C          0.59896        2.45458       -0.45390
C          0.07656        2.24575       -1.87805
C         -0.03390        3.72922        0.14413
N          0.67336        4.17193        1.33564
C          1.74191        5.03900        1.45791
O          2.34967        4.98022        2.53263
C          2.09402        5.96768        0.38110
N          1.31570        6.30049       -0.63045
C          1.92466        7.27562       -1.42304
C          3.18585        7.64490       -0.99177
S          3.60934        6.78429        0.42544
C          1.27640        7.85687       -2.59445
O          1.76012        8.71869       -3.31666
O          0.04035        7.37253       -2.85722
H          0.48607       -0.40854       -0.96593
H          0.77176       -0.85460        0.71748
H          2.01026        0.04630       -0.17348
H         -0.77877        1.09246        0.54010
H          0.68015        1.43508        1.46075
H          1.68677        2.59253       -0.51239
H         -0.99991        2.04517       -1.88077
H          0.25747        3.13491       -2.49207
H          0.58291        1.40971       -2.36999
H         -0.06933        4.52380       -0.59915
H         -1.06879        3.53396        0.44759
H          0.55543        3.61532        2.17227
H          3.85446        8.37327       -1.43052
H         -0.24091        7.87377       -3.64787

--Link1--
%chk=JID_6847.chk
%mem=8GB
%nprocshared=4
# B3LYP/6-311++G(d,p) empiricaldispersion=gd3bj scf=xqc pop=npa geom=check

CID_116697059_JID_6847_Energie_neutraal

0 1

--Link1--
%chk=JID_6847.chk
%mem=8GB
%nprocshared=4
# B3LYP/6-311++G(d,p) empiricaldispersion=gd3bj scf=xqc pop=npa geom=check

CID_116697059_JID_6847_Energie_kation

1 2

--Link1--
%chk=JID_6847.chk
%mem=8GB
%nprocshared=4
# B3LYP/6-311++G(d,p) empiricaldispersion=gd3bj scf=xqc pop=npa geom=check

CID_116697059_JID_6847_Energie_anion

-1 2
