%chk=JID_4355.chk
%mem=8GB
%nprocshared=4
# opt freq B3LYP/6-31G(d) empiricaldispersion=gd3bj scf=xqc

CID_79153737_JID_4355_neutraal

0 1
C          1.09241        0.01702        0.03423
N          1.10806       -0.82312       -1.14980
C          1.06135       -2.25508       -0.90323
C          1.64321       -0.29147       -2.29845
O          2.28973        0.75511       -2.32197
N          1.41502       -0.92538       -3.48165
C          0.16982       -1.55657       -3.88577
C         -1.04977       -0.62522       -3.88437
C         -1.18039        0.29350       -5.12207
C         -0.17113        1.45062       -5.17467
C         -0.45613        2.52567       -4.12604
N         -1.81578        3.05070       -4.26675
C         -2.82000        1.99494       -4.15434
C         -2.59735        0.89719       -5.19627
H          0.27189       -0.29510        0.68676
H          0.94799        1.06699       -0.23835
H          2.04711       -0.08654        0.55881
H          0.02485       -2.54120       -0.70545
H          1.46423       -2.83232       -1.73836
H          1.67170       -2.48720       -0.02424
H          1.91313       -0.44698       -4.22056
H          0.33254       -1.97784       -4.88371
H         -0.03589       -2.39684       -3.21994
H         -1.93348       -1.27746       -3.86728
H         -1.08600       -0.04540       -2.95639
H         -1.03731       -0.32948       -6.01466
H          0.85608        1.09625       -5.07621
H         -0.22555        1.91247       -6.17056
H         -0.30066        2.13860       -3.11296
H          0.25181        3.35077       -4.26153
H         -1.97753        3.75183       -3.54431
H         -3.81079        2.43592       -4.31022
H         -2.81778        1.57530       -3.14175
H         -2.74882        1.32161       -6.19803
H         -3.35592        0.11462       -5.07690

--Link1--
%chk=JID_4355.chk
%mem=8GB
%nprocshared=4
# B3LYP/6-311++G(d,p) empiricaldispersion=gd3bj scf=xqc pop=npa geom=check

CID_79153737_JID_4355_Energie_neutraal

0 1

--Link1--
%chk=JID_4355.chk
%mem=8GB
%nprocshared=4
# B3LYP/6-311++G(d,p) empiricaldispersion=gd3bj scf=xqc pop=npa geom=check

CID_79153737_JID_4355_Energie_kation

1 2

--Link1--
%chk=JID_4355.chk
%mem=8GB
%nprocshared=4
# B3LYP/6-311++G(d,p) empiricaldispersion=gd3bj scf=xqc pop=npa geom=check

CID_79153737_JID_4355_Energie_anion

-1 2
