%chk=JID_4933.chk
%mem=8GB
%nprocshared=4
# opt freq B3LYP/6-31G(d) empiricaldispersion=gd3bj scf=xqc

CID_103255909_JID_4933_neutraal

0 1
C          1.06710       -0.03571        0.06499
C          0.89449       -1.24813       -0.83850
C          1.34605       -2.55798       -0.18846
C          0.54470       -2.99522        1.04602
C         -0.93442       -3.33943        0.78500
C         -1.01548       -4.61580       -0.06149
O         -1.01810       -5.76408        0.35849
O         -1.08825       -4.37193       -1.38496
N         -1.55467       -3.59256        2.10976
C         -2.98525       -3.34480        2.27360
C         -3.88651       -3.68275        1.07635
C         -4.62320       -2.34511        1.34592
C         -3.35324       -1.86120        2.09207
O         -5.83944       -2.42214        2.11674
H          0.39688       -0.08241        0.92831
H          0.83222        0.88006       -0.48703
H          2.09681        0.04227        0.42767
H         -0.14729       -1.31749       -1.16808
H          1.49479       -1.09033       -1.74287
H          1.32528       -3.35257       -0.94277
H          2.39821       -2.45555        0.10692
H          1.05103       -3.87373        1.47030
H          0.61270       -2.20987        1.80916
H         -1.43114       -2.51871        0.26301
H         -1.14089       -5.26348       -1.78962
H         -1.27683       -4.53617        2.40031
H         -3.37042       -3.74622        3.22029
H         -4.49277       -4.58511        1.20507
H         -3.45322       -3.70658        0.07386
H         -4.82161       -1.77807        0.42961
H         -2.69871       -1.24579        1.46631
H         -3.53775       -1.31780        3.02419
H         -5.61124       -2.89577        2.93457

--Link1--
%chk=JID_4933.chk
%mem=8GB
%nprocshared=4
# B3LYP/6-311++G(d,p) empiricaldispersion=gd3bj scf=xqc pop=npa geom=check

CID_103255909_JID_4933_Energie_neutraal

0 1

--Link1--
%chk=JID_4933.chk
%mem=8GB
%nprocshared=4
# B3LYP/6-311++G(d,p) empiricaldispersion=gd3bj scf=xqc pop=npa geom=check

CID_103255909_JID_4933_Energie_kation

1 2

--Link1--
%chk=JID_4933.chk
%mem=8GB
%nprocshared=4
# B3LYP/6-311++G(d,p) empiricaldispersion=gd3bj scf=xqc pop=npa geom=check

CID_103255909_JID_4933_Energie_anion

-1 2
