%chk=JID_5929.chk
%mem=8GB
%nprocshared=4
# opt freq B3LYP/6-31G(d) empiricaldispersion=gd3bj scf=xqc

CID_66277300_JID_5929_neutraal

0 1
C          0.97900        0.05954        0.07755
N          0.70798       -0.61671        1.35345
C         -0.33899       -0.02919        2.22503
C         -0.25331        1.51075        2.29900
C          0.94914        1.83308        3.17420
S          0.82049        0.67976        4.52051
O          0.05695        1.31192        5.58033
O          2.11793        0.08875        4.76915
C         -0.23926       -0.48862        3.69496
C          0.80922       -1.97481        1.29677
N         -0.02660       -2.86614        1.84142
N          0.58206       -4.02563        1.54748
C          1.73805       -3.81807        0.85633
N          1.88559       -2.53658        0.65927
N          2.55404       -4.81412        0.47522
H          0.04590        0.23288       -0.47029
H          1.65120       -0.50212       -0.58113
H          1.47179        1.02099        0.25254
H         -1.31726       -0.31339        1.81588
H         -1.16311        1.89203        2.78178
H         -0.18828        2.00576        1.32700
H          0.92748        2.85373        3.56129
H          1.89423        1.64937        2.65617
H          0.16418       -1.48547        3.86970
H         -1.22246       -0.41474        4.17235
H          0.16837       -4.90075        1.83907
H          2.61268       -5.66623        1.02220
H          3.46834       -4.50736        0.14930

--Link1--
%chk=JID_5929.chk
%mem=8GB
%nprocshared=4
# B3LYP/6-311++G(d,p) empiricaldispersion=gd3bj scf=xqc pop=npa geom=check

CID_66277300_JID_5929_Energie_neutraal

0 1

--Link1--
%chk=JID_5929.chk
%mem=8GB
%nprocshared=4
# B3LYP/6-311++G(d,p) empiricaldispersion=gd3bj scf=xqc pop=npa geom=check

CID_66277300_JID_5929_Energie_kation

1 2

--Link1--
%chk=JID_5929.chk
%mem=8GB
%nprocshared=4
# B3LYP/6-311++G(d,p) empiricaldispersion=gd3bj scf=xqc pop=npa geom=check

CID_66277300_JID_5929_Energie_anion

-1 2
