%chk=JID_8745.chk
%mem=8GB
%nprocshared=4
# opt freq B3LYP/6-31G(d) empiricaldispersion=gd3bj scf=xqc

CID_83265921_JID_8745_neutraal

0 1
C          0.94156       -0.03935       -0.07097
C          0.40461       -0.48188        1.25587
C          0.33884       -1.83589        1.56561
N         -0.06912       -2.33568        2.75400
C         -0.40583       -1.46332        3.71756
C         -0.38244       -0.08816        3.48608
C         -0.03692        0.41698        2.22856
N          0.08778        1.80608        2.05829
N         -0.70633       -1.90489        5.01717
C         -0.72867       -3.34912        5.22574
C         -0.29108       -3.67109        6.65894
C         -1.11786       -3.02189        7.77502
C         -2.59030       -3.42946        7.81350
N         -2.80419       -4.84104        8.05201
C         -3.36269       -5.73445        7.18246
C         -3.37628       -6.92937        7.86425
N         -2.85018       -6.77891        9.12092
C         -2.52115       -5.50970        9.20884
H          0.16572        0.48367       -0.63922
H          1.27705       -0.89014       -0.67369
H          1.80149        0.62406        0.06696
H          0.64374       -2.59263        0.84721
H         -0.61278        0.59197        4.29897
H         -0.51178        2.35084        2.67050
H          0.02215        2.11395        1.09356
H         -1.55745       -1.44934        5.32871
H         -1.73241       -3.73825        5.02278
H         -0.03327       -3.87904        4.56400
H         -0.28677       -4.75985        6.78916
H          0.75024       -3.34583        6.78387
H         -0.64691       -3.27353        8.73387
H         -1.05834       -1.93040        7.68927
H         -3.09883       -2.89679        8.62618
H         -3.10022       -3.15706        6.88336
H         -3.69510       -5.46472        6.19025
H         -3.74047       -7.88831        7.51911
H         -2.07756       -5.03399       10.07378

--Link1--
%chk=JID_8745.chk
%mem=8GB
%nprocshared=4
# B3LYP/6-311++G(d,p) empiricaldispersion=gd3bj scf=xqc pop=npa geom=check

CID_83265921_JID_8745_Energie_neutraal

0 1

--Link1--
%chk=JID_8745.chk
%mem=8GB
%nprocshared=4
# B3LYP/6-311++G(d,p) empiricaldispersion=gd3bj scf=xqc pop=npa geom=check

CID_83265921_JID_8745_Energie_kation

1 2

--Link1--
%chk=JID_8745.chk
%mem=8GB
%nprocshared=4
# B3LYP/6-311++G(d,p) empiricaldispersion=gd3bj scf=xqc pop=npa geom=check

CID_83265921_JID_8745_Energie_anion

-1 2
