%chk=JID_6863.chk
%mem=8GB
%nprocshared=4
# opt freq B3LYP/6-31G(d) empiricaldispersion=gd3bj scf=xqc

CID_65249946_JID_6863_neutraal

0 1
C          1.00010        0.05051        0.08631
C          2.11496       -0.69256        0.77837
O          3.18022       -0.12660        1.02515
N          1.87235       -2.02232        1.11540
C          0.52401       -2.59298        1.08543
C          0.49583       -4.12190        1.20520
N          1.32041       -4.68515        2.27840
C          2.69236       -4.16737        2.19204
C          2.83683       -2.64099        2.02994
C          0.69992       -4.68296        3.60723
C          0.83895       -3.42661        4.48148
C         -0.03425       -3.40128        5.77114
C          0.28639       -4.61709        6.66247
C          0.33143       -2.12397        6.56145
C         -1.55901       -3.40770        5.47294
N         -2.00301       -2.30599        4.62370
H          0.11025        0.08603        0.71970
H          0.77344       -0.41878       -0.87445
H          1.31891        1.07979       -0.10603
H         -0.05175       -2.12828        1.89145
H          0.03574       -2.31259        0.14647
H          0.86512       -4.53987        0.25862
H         -0.54146       -4.46892        1.28470
H          3.15065       -4.63344        1.30905
H          3.29467       -4.51340        3.04082
H          3.85105       -2.41592        1.67770
H          2.72876       -2.13770        2.99633
H         -0.35450       -4.95786        3.49900
H          1.15157       -5.51940        4.15537
H          1.89127       -3.33553        4.78210
H          0.61197       -2.53111        3.89827
H          1.36029       -4.68523        6.86851
H         -0.23285       -4.54686        7.62524
H         -0.02720       -5.55557        6.19321
H          0.17352       -1.21961        5.96358
H         -0.27273       -2.03365        7.47117
H          1.38486       -2.13661        6.86437
H         -1.86103       -4.35268        5.00856
H         -2.11054       -3.34339        6.41911
H         -3.01930       -2.32998        4.54423
H         -1.64301       -2.42668        3.68031

--Link1--
%chk=JID_6863.chk
%mem=8GB
%nprocshared=4
# B3LYP/6-311++G(d,p) empiricaldispersion=gd3bj scf=xqc pop=npa geom=check

CID_65249946_JID_6863_Energie_neutraal

0 1

--Link1--
%chk=JID_6863.chk
%mem=8GB
%nprocshared=4
# B3LYP/6-311++G(d,p) empiricaldispersion=gd3bj scf=xqc pop=npa geom=check

CID_65249946_JID_6863_Energie_kation

1 2

--Link1--
%chk=JID_6863.chk
%mem=8GB
%nprocshared=4
# B3LYP/6-311++G(d,p) empiricaldispersion=gd3bj scf=xqc pop=npa geom=check

CID_65249946_JID_6863_Energie_anion

-1 2
