%chk=JID_4426.chk
%mem=8GB
%nprocshared=4
# opt freq B3LYP/6-31G(d) empiricaldispersion=gd3bj scf=xqc

CID_131418785_JID_4426_neutraal

0 1
C         -2.38400        0.00700       -0.11600
N         -0.93545       -0.00012        0.09437
C         -0.33999       -1.22184       -0.44668
C          1.15453       -1.27811       -0.13405
C          1.94702       -0.04034       -0.60255
C          1.18416        1.24122       -0.21473
C         -0.32533        1.20584       -0.46663
C          2.41180       -0.12920       -2.08932
C          1.38345        0.06144       -3.26734
C          1.96455        1.46834       -3.45494
O          1.57496        2.46474       -4.02345
C          3.19923        1.14446       -2.60251
C          3.23466       -1.32632       -2.29206
N          3.88596       -2.26826       -2.46994
H         -2.64572        0.00498       -1.18030
H         -2.84692       -0.86722        0.35514
H         -2.83629        0.88970        0.34959
H         -0.81065       -2.09698        0.01892
H         -0.51173       -1.31109       -1.52459
H          1.56849       -2.20806       -0.53669
H          1.26600       -1.35349        0.95712
H          2.87398       -0.02418       -0.00796
H          1.60534        2.13256       -0.68773
H          1.32791        1.38975        0.86559
H         -0.53934        1.30244       -1.53533
H         -0.76158        2.09045        0.01503
H          1.54243       -0.57088       -4.14854
H          0.32301        0.04888       -3.02599
H          3.45046        1.90427       -1.85933
H          4.08644        0.95197       -3.21662

--Link1--
%chk=JID_4426.chk
%mem=8GB
%nprocshared=4
# B3LYP/6-311++G(d,p) empiricaldispersion=gd3bj scf=xqc pop=npa geom=check

CID_131418785_JID_4426_Energie_neutraal

0 1

--Link1--
%chk=JID_4426.chk
%mem=8GB
%nprocshared=4
# B3LYP/6-311++G(d,p) empiricaldispersion=gd3bj scf=xqc pop=npa geom=check

CID_131418785_JID_4426_Energie_kation

1 2

--Link1--
%chk=JID_4426.chk
%mem=8GB
%nprocshared=4
# B3LYP/6-311++G(d,p) empiricaldispersion=gd3bj scf=xqc pop=npa geom=check

CID_131418785_JID_4426_Energie_anion

-1 2
