%chk=JID_7741.chk
%mem=8GB
%nprocshared=4
# opt freq B3LYP/6-31G(d) empiricaldispersion=gd3bj scf=xqc

CID_64786657_JID_7741_neutraal

0 1
C          0.99596        0.09981       -0.00468
C          0.81187        0.67763        1.41121
C          1.19503        2.17316        1.36693
C         -0.69506        0.60988        1.76129
C          1.63714       -0.07516        2.52486
C          3.16254        0.13483        2.50849
C          3.90807       -0.70455        1.46325
N          3.26667       -1.99536        1.16643
C          2.54666       -2.49164        2.34259
C          1.33650       -1.59180        2.62678
C          4.21547       -3.00516        0.64091
C          4.42777       -3.01728       -0.92057
C          5.11564       -1.71409       -1.39270
C          5.42673       -4.16318       -1.28083
O          4.92621       -5.46255       -0.98918
N          3.18301       -3.14085       -1.74143
C          2.11965       -3.96799       -1.17891
H          0.34407        0.61582       -0.72030
H          0.74220       -0.96258       -0.05640
H          2.01734        0.22800       -0.36992
H          0.52013        2.73557        0.71081
H          1.13964        2.62573        2.36316
H          2.20765        2.32252        0.97844
H         -1.08007       -0.41391        1.73592
H         -0.88647        1.01613        2.76090
H         -1.29270        1.19337        1.05090
H          1.29903        0.36635        3.47519
H          3.43229        1.18992        2.40265
H          3.54227       -0.15221        3.50021
H          3.98732       -0.11220        0.55002
H          4.93271       -0.84380        1.83158
H          3.20713       -2.55138        3.21740
H          2.16040       -3.50432        2.17203
H          0.98007       -1.81451        3.64095
H          0.51948       -1.88455        1.96018
H          5.18586       -2.91714        1.14851
H          3.85602       -4.00616        0.91510
H          5.99442       -1.48616       -0.77903
H          5.45407       -1.79638       -2.43320
H          4.44368       -0.85172       -1.35819
H          5.68729       -4.14122       -2.34619
H          6.36063       -4.04065       -0.72033
H          4.21990       -5.60778       -1.64473
H          2.78310       -2.20285       -1.82329
H          1.61547       -3.47529       -0.34396
H          1.36019       -4.12816       -1.95146
H          2.45466       -4.95437       -0.85442

--Link1--
%chk=JID_7741.chk
%mem=8GB
%nprocshared=4
# B3LYP/6-311++G(d,p) empiricaldispersion=gd3bj scf=xqc pop=npa geom=check

CID_64786657_JID_7741_Energie_neutraal

0 1

--Link1--
%chk=JID_7741.chk
%mem=8GB
%nprocshared=4
# B3LYP/6-311++G(d,p) empiricaldispersion=gd3bj scf=xqc pop=npa geom=check

CID_64786657_JID_7741_Energie_kation

1 2

--Link1--
%chk=JID_7741.chk
%mem=8GB
%nprocshared=4
# B3LYP/6-311++G(d,p) empiricaldispersion=gd3bj scf=xqc pop=npa geom=check

CID_64786657_JID_7741_Energie_anion

-1 2
