%chk=JID_5278.chk
%mem=8GB
%nprocshared=4
# opt freq B3LYP/6-31G(d) empiricaldispersion=gd3bj scf=xqc

CID_115750873_JID_5278_neutraal

0 1
C          1.04159       -0.08605       -0.02943
C          0.60871       -0.11531       -1.48477
C          1.04096       -1.36411       -2.16417
C          0.36745       -2.52378       -2.48124
C          1.30947       -3.32884       -3.15632
N          2.48688       -2.72005       -3.25891
N          2.31558       -1.55260       -2.62285
N          1.02469       -4.56390       -3.69834
S          2.07087       -5.50621       -4.56790
O          3.20803       -5.84443       -3.73762
O          1.24872       -6.56834       -5.11766
C          2.63357       -4.48801       -5.93743
C          1.59256       -4.20429       -7.02854
C          0.47493       -3.26510       -6.57663
C          2.29700       -3.59141       -8.24437
H          0.62218       -0.93190        0.52616
H          0.69998        0.83725        0.44917
H          2.13210       -0.13172        0.06329
H         -0.48276       -0.02658       -1.53919
H          1.02274        0.75466       -2.00818
H         -0.66785       -2.74795       -2.26889
H          3.10907       -0.92318       -2.55115
H          0.07329       -4.91707       -3.67107
H          3.08349       -3.57296       -5.54780
H          3.45522       -5.07014       -6.37534
H          1.13555       -5.14750       -7.35090
H          0.87726       -2.35171       -6.12630
H         -0.15330       -2.97040       -7.42457
H         -0.18574       -3.75039       -5.85419
H          3.07285       -4.26326       -8.62628
H          1.58616       -3.41002       -9.05760
H          2.76984       -2.63668       -7.98862

--Link1--
%chk=JID_5278.chk
%mem=8GB
%nprocshared=4
# B3LYP/6-311++G(d,p) empiricaldispersion=gd3bj scf=xqc pop=npa geom=check

CID_115750873_JID_5278_Energie_neutraal

0 1

--Link1--
%chk=JID_5278.chk
%mem=8GB
%nprocshared=4
# B3LYP/6-311++G(d,p) empiricaldispersion=gd3bj scf=xqc pop=npa geom=check

CID_115750873_JID_5278_Energie_kation

1 2

--Link1--
%chk=JID_5278.chk
%mem=8GB
%nprocshared=4
# B3LYP/6-311++G(d,p) empiricaldispersion=gd3bj scf=xqc pop=npa geom=check

CID_115750873_JID_5278_Energie_anion

-1 2
