%chk=JID_9045.chk
%mem=8GB
%nprocshared=4
# opt freq B3LYP/6-31G(d) empiricaldispersion=gd3bj scf=xqc

CID_102658615_JID_9045_neutraal

0 1
C          1.04874        0.07738       -0.04046
C          0.59935        1.51458       -0.22089
C          1.02088        2.11989       -1.56148
C          0.45405        1.42843       -2.82329
C         -1.07584        1.41344       -2.87576
N          1.04432        1.99267       -4.05975
C          1.94033        1.13386       -4.82266
C          0.84986        3.33868       -4.36907
O          0.19269        4.09811       -3.65898
N          1.49426        3.80252       -5.50194
C          1.48965        5.22507       -5.86953
C          1.10920        4.83259       -7.30949
C          1.17597        3.35714       -6.86328
C          2.19414        5.24470       -8.30309
O         -0.19246        5.34222       -7.72060
C         -0.77903        4.85503       -8.91762
C         -0.33652        5.56823      -10.18640
O         -0.09643        5.03453      -11.25702
O         -0.23016        6.90512      -10.04835
H          0.55779       -0.59261       -0.75194
H          0.79494       -0.27118        0.96598
H          2.13208       -0.01591       -0.16612
H         -0.48618        1.58235       -0.09293
H          1.04151        2.11793        0.58168
H          0.72589        3.17433       -1.53939
H          2.11743        2.11733       -1.62040
H          0.75842        0.37624       -2.78724
H         -1.50347        2.41837       -2.82294
H         -1.42296        0.94956       -3.80566
H         -1.49042        0.83035       -2.04694
H          1.43325        0.82982       -5.74255
H          2.86008        1.67163       -5.06894
H          2.21023        0.23667       -4.25906
H          0.74367        5.83192       -5.34757
H          2.47588        5.67996       -5.73113
H          1.98407        2.76912       -7.31007
H          0.23669        2.80047       -6.93236
H          2.08095        4.71788       -9.25542
H          2.15516        6.32222       -8.49588
H          3.19696        5.01148       -7.92850
H         -0.57918        3.78433       -9.02688
H         -1.86333        4.98377       -8.83549
H          0.07775        7.22323      -10.92121

--Link1--
%chk=JID_9045.chk
%mem=8GB
%nprocshared=4
# B3LYP/6-311++G(d,p) empiricaldispersion=gd3bj scf=xqc pop=npa geom=check

CID_102658615_JID_9045_Energie_neutraal

0 1

--Link1--
%chk=JID_9045.chk
%mem=8GB
%nprocshared=4
# B3LYP/6-311++G(d,p) empiricaldispersion=gd3bj scf=xqc pop=npa geom=check

CID_102658615_JID_9045_Energie_kation

1 2

--Link1--
%chk=JID_9045.chk
%mem=8GB
%nprocshared=4
# B3LYP/6-311++G(d,p) empiricaldispersion=gd3bj scf=xqc pop=npa geom=check

CID_102658615_JID_9045_Energie_anion

-1 2
