%chk=JID_10758.chk
%mem=8GB
%nprocshared=4
# opt freq B3LYP/6-31G(d) empiricaldispersion=gd3bj scf=xqc

CID_139296965_JID_10758_neutraal

0 1
C          1.63500        2.53100        0.05900
C          1.16763        1.11352        0.10442
C          2.00959        0.02088        0.14571
S          1.17123       -1.45959        0.19739
C         -0.36034       -0.67702        0.16668
C         -0.22289        0.71174        0.11137
C         -1.40723        1.48744        0.07484
C         -2.66577        0.87290        0.09581
C         -2.79342       -0.51659        0.15685
C         -1.62680       -1.29793        0.19149
C         -4.12020       -1.15044        0.18983
C         -4.49892       -1.97336        1.26296
C         -5.76690       -2.57777        1.31568
C         -6.66864       -2.38355        0.25661
C         -8.04938       -2.99238        0.27343
C         -8.19028       -4.14040        1.27133
C         -7.59869       -3.74954        2.61944
C         -6.10282       -3.47136        2.48472
C         -6.30109       -1.55653       -0.81290
C         -5.04302       -0.94955       -0.84491
H          1.26892        3.02451       -0.84708
H          1.26633        3.08187        0.93031
H          2.72823        2.59228        0.05854
H          3.09126        0.02153        0.14909
H         -1.34673        2.57207        0.03375
H         -3.55462        1.50121        0.07802
H         -1.69393       -2.38286        0.22772
H         -3.79867       -2.13784        2.08078
H         -8.30620       -3.36202       -0.72649
H         -8.76576       -2.20135        0.52853
H         -7.67684       -5.03218        0.88993
H         -9.24830       -4.40227        1.38377
H         -8.11188       -2.85763        3.00096
H         -7.75965       -4.55006        3.35010
H         -5.74461       -3.01724        3.41635
H         -5.56815       -4.42016        2.35131
H         -6.99430       -1.38105       -1.63248
H         -4.78198       -0.32337       -1.69568

--Link1--
%chk=JID_10758.chk
%mem=8GB
%nprocshared=4
# B3LYP/6-311++G(d,p) empiricaldispersion=gd3bj scf=xqc pop=npa geom=check

CID_139296965_JID_10758_Energie_neutraal

0 1

--Link1--
%chk=JID_10758.chk
%mem=8GB
%nprocshared=4
# B3LYP/6-311++G(d,p) empiricaldispersion=gd3bj scf=xqc pop=npa geom=check

CID_139296965_JID_10758_Energie_kation

1 2

--Link1--
%chk=JID_10758.chk
%mem=8GB
%nprocshared=4
# B3LYP/6-311++G(d,p) empiricaldispersion=gd3bj scf=xqc pop=npa geom=check

CID_139296965_JID_10758_Energie_anion

-1 2
