%chk=JID_6485.chk
%mem=8GB
%nprocshared=4
# opt freq B3LYP/6-31G(d) empiricaldispersion=gd3bj scf=xqc

CID_82472887_JID_6485_neutraal

0 1
C          0.99979       -0.03061       -0.09520
C          0.40817        1.22548       -0.65309
N         -0.65557        1.10588       -1.45146
C         -1.17678        2.25714       -1.87996
N         -0.71881        3.46714       -1.55399
C          0.35088        3.47852       -0.75245
N          0.94885        2.38555       -0.27170
C          0.89001        4.81701       -0.32646
C          1.44262        5.62416       -1.50976
N          0.85391        6.93471       -1.81973
C         -0.51461        6.87574       -2.35320
C         -1.65007        7.03212       -1.31902
N         -1.47717        8.20882       -0.45021
C         -0.16036        8.14182        0.20257
C          1.01484        7.96478       -0.78594
C         -2.36490        2.18130       -2.78677
H          0.80433       -0.87912       -0.75809
H          0.56125       -0.24086        0.88461
H          2.08337        0.07293        0.01728
H          0.09700        5.33570        0.21173
H          1.69444        4.66570        0.40474
H          2.51168        5.79459       -1.31994
H          1.43849        5.02371       -2.42966
H         -0.60872        7.70058       -3.07248
H         -0.67179        5.96507       -2.94336
H         -1.74384        6.13266       -0.70239
H         -2.60264        7.13493       -1.85131
H         -1.48520        9.03608       -1.04816
H         -0.16391        7.33684        0.94437
H         -0.00970        9.06913        0.76741
H          1.94716        7.81962       -0.22670
H          1.14124        8.91942       -1.31433
H         -2.11365        1.60713       -3.68355
H         -3.19618        1.69097       -2.27186
H         -2.68837        3.18029       -3.09548

--Link1--
%chk=JID_6485.chk
%mem=8GB
%nprocshared=4
# B3LYP/6-311++G(d,p) empiricaldispersion=gd3bj scf=xqc pop=npa geom=check

CID_82472887_JID_6485_Energie_neutraal

0 1

--Link1--
%chk=JID_6485.chk
%mem=8GB
%nprocshared=4
# B3LYP/6-311++G(d,p) empiricaldispersion=gd3bj scf=xqc pop=npa geom=check

CID_82472887_JID_6485_Energie_kation

1 2

--Link1--
%chk=JID_6485.chk
%mem=8GB
%nprocshared=4
# B3LYP/6-311++G(d,p) empiricaldispersion=gd3bj scf=xqc pop=npa geom=check

CID_82472887_JID_6485_Energie_anion

-1 2
