%chk=JID_5284.chk
%mem=8GB
%nprocshared=4
# opt freq B3LYP/6-31G(d) empiricaldispersion=gd3bj scf=xqc

CID_105453717_JID_5284_neutraal

0 1
C          1.26600       -0.09700        0.26800
C          0.25171        0.99835       -0.00598
C         -1.04718        0.38971        0.50213
C         -0.96049       -1.10521        0.13954
C          0.53419       -1.37626       -0.11965
C         -1.79589       -1.51878       -1.03605
C         -2.37434       -2.71013       -1.43306
C         -3.09802       -2.42049       -2.66068
N         -2.91593       -1.13686       -3.00073
N         -2.13144       -0.63923       -2.03637
C         -3.84690       -3.40581       -3.32481
C         -3.83397       -4.66088       -2.69105
C         -3.10736       -4.92120       -1.49126
C         -2.31051       -3.97014       -0.80772
N         -1.64640       -4.33679        0.36669
H          1.52052       -0.11898        1.33439
H          2.19140        0.03922       -0.29896
H          0.50038        1.93180        0.50686
H          0.18843        1.20186       -1.08093
H         -1.93067        0.90713        0.11665
H         -1.07477        0.48872        1.59560
H         -1.30151       -1.65801        1.02172
H          0.72951       -1.60364       -1.17518
H          0.89764       -2.22797        0.46519
H         -1.86654        0.33615       -2.11408
H         -4.39355       -3.20546       -4.23543
H         -4.40755       -5.47415       -3.13454
H         -3.17525       -5.92821       -1.07734
H         -1.03260       -3.62177        0.73107
H         -1.16904       -5.22933        0.28185

--Link1--
%chk=JID_5284.chk
%mem=8GB
%nprocshared=4
# B3LYP/6-311++G(d,p) empiricaldispersion=gd3bj scf=xqc pop=npa geom=check

CID_105453717_JID_5284_Energie_neutraal

0 1

--Link1--
%chk=JID_5284.chk
%mem=8GB
%nprocshared=4
# B3LYP/6-311++G(d,p) empiricaldispersion=gd3bj scf=xqc pop=npa geom=check

CID_105453717_JID_5284_Energie_kation

1 2

--Link1--
%chk=JID_5284.chk
%mem=8GB
%nprocshared=4
# B3LYP/6-311++G(d,p) empiricaldispersion=gd3bj scf=xqc pop=npa geom=check

CID_105453717_JID_5284_Energie_anion

-1 2
