%chk=JID_1477.chk
%mem=8GB
%nprocshared=4
# opt freq B3LYP/6-31G(d) empiricaldispersion=gd3bj scf=xqc

CID_69162517_JID_1477_neutraal

0 1
C          0.90771        0.02676        0.02767
C          0.07897       -0.88076       -0.87044
C          0.64834       -2.30137       -1.00821
N          0.03247       -3.34526       -0.16344
C          0.48832       -4.66117       -0.61378
C          0.24819       -3.12581        1.28216
C          0.12607       -4.35189        2.24012
O         -1.21453       -4.86407        2.30652
C         -2.10630       -3.82605        2.73221
C         -2.00141       -2.60286        1.82500
O         -0.65257       -2.11500        1.77657
H          0.97781       -0.34532        1.05137
H          0.46065        1.02545        0.06451
H          1.92529        0.13137       -0.36300
H         -0.96431       -0.90335       -0.53702
H          0.06038       -0.42246       -1.86795
H          0.46953       -2.58382       -2.05492
H          1.73892       -2.29180       -0.88074
H          1.55332       -4.81916       -0.40975
H         -0.08986       -5.46437       -0.14602
H          0.32776       -4.78347       -1.69154
H          1.26648       -2.74312        1.42734
H          0.41841       -4.05205        3.25498
H          0.79503       -5.16746        1.94990
H         -3.12463       -4.22567        2.71857
H         -1.85803       -3.56220        3.76692
H         -2.63328       -1.79628        2.20933
H         -2.34193       -2.83685        0.81033

--Link1--
%chk=JID_1477.chk
%mem=8GB
%nprocshared=4
# B3LYP/6-311++G(d,p) empiricaldispersion=gd3bj scf=xqc pop=npa geom=check

CID_69162517_JID_1477_Energie_neutraal

0 1

--Link1--
%chk=JID_1477.chk
%mem=8GB
%nprocshared=4
# B3LYP/6-311++G(d,p) empiricaldispersion=gd3bj scf=xqc pop=npa geom=check

CID_69162517_JID_1477_Energie_kation

1 2

--Link1--
%chk=JID_1477.chk
%mem=8GB
%nprocshared=4
# B3LYP/6-311++G(d,p) empiricaldispersion=gd3bj scf=xqc pop=npa geom=check

CID_69162517_JID_1477_Energie_anion

-1 2
