%chk=JID_10464.chk
%mem=8GB
%nprocshared=4
# opt freq B3LYP/6-31G(d) empiricaldispersion=gd3bj scf=xqc

CID_79059438_JID_10464_neutraal

0 1
C          1.26600       -0.09700        0.26800
C          0.71093        0.77206        1.37916
C         -0.79612        0.52513        1.35351
C         -1.01536       -0.83989        0.62494
C          0.42040       -1.35359        0.36695
C         -1.86107       -0.48778       -0.65407
O         -2.99240        0.00920       -0.54751
C         -1.33559       -0.81146       -2.04540
C         -1.64501        0.30533       -3.04649
C         -0.74545        1.50399       -2.84652
C          0.52416        1.54838       -3.43974
C          1.37486        2.63120       -3.21042
C          0.96562        3.67832       -2.38705
C         -0.29601        3.64610       -1.79628
C         -1.14844        2.56506       -2.02537
N         -1.81191       -1.80452        1.41914
C         -1.41511       -2.01013        2.81606
C         -1.60431       -3.49538        3.09408
C         -2.49016       -3.97277        1.96250
C         -2.03144       -3.11232        0.80037
H          2.33141       -0.30477        0.40377
H          1.13793        0.39126       -0.70135
H          1.12108        0.45353        2.34495
H          0.95926        1.82877        1.24233
H         -1.28439        1.35392        0.82711
H         -1.19502        0.55084        2.37281
H          0.52711       -2.00152       -0.50574
H          0.79506       -1.94176        1.21412
H         -0.26229       -0.99203       -2.05118
H         -1.82607       -1.74032       -2.35779
H         -1.49743       -0.07486       -4.06546
H         -2.69558        0.61567       -2.99438
H          0.86127        0.73621       -4.07966
H          2.35821        2.65721       -3.67263
H          1.62840        4.52067       -2.20735
H         -0.61782        4.46233       -1.15465
H         -2.12872        2.55025       -1.55061
H         -2.07816       -1.42342        3.46175
H         -0.38590       -1.71860        3.04834
H         -0.63525       -4.00745        3.04408
H         -2.04302       -3.68806        4.07723
H         -2.37162       -5.04220        1.76592
H         -3.54337       -3.77739        2.19756
H         -1.11090       -3.53290        0.38030
H         -2.79114       -3.07561        0.01374

--Link1--
%chk=JID_10464.chk
%mem=8GB
%nprocshared=4
# B3LYP/6-311++G(d,p) empiricaldispersion=gd3bj scf=xqc pop=npa geom=check

CID_79059438_JID_10464_Energie_neutraal

0 1

--Link1--
%chk=JID_10464.chk
%mem=8GB
%nprocshared=4
# B3LYP/6-311++G(d,p) empiricaldispersion=gd3bj scf=xqc pop=npa geom=check

CID_79059438_JID_10464_Energie_kation

1 2

--Link1--
%chk=JID_10464.chk
%mem=8GB
%nprocshared=4
# B3LYP/6-311++G(d,p) empiricaldispersion=gd3bj scf=xqc pop=npa geom=check

CID_79059438_JID_10464_Energie_anion

-1 2
