%chk=JID_7994.chk
%mem=8GB
%nprocshared=4
# opt freq B3LYP/6-31G(d) empiricaldispersion=gd3bj scf=xqc

CID_78859283_JID_7994_neutraal

0 1
C         -1.09000        0.74600        0.20700
C         -1.12871       -0.64095       -0.38076
C          0.23486       -1.20826       -0.00801
O          1.12002       -0.07392        0.12168
C          0.35517        1.13156       -0.00358
C          0.28603       -1.97460        1.32120
C         -0.57550       -3.23106        1.40072
C          0.00007       -4.41156        0.65819
O          0.36679       -5.44557        1.19925
O         -0.00508       -4.18436       -0.68086
C          0.43711       -5.26907       -1.51371
C          1.97244       -5.39247       -1.55689
C          2.67671       -4.06490       -1.88203
C          2.36219       -3.56840       -3.29567
C          2.38097       -4.67030       -4.31628
C          2.41297       -5.97240       -3.99368
C          2.39813       -6.46852       -2.57398
H         -1.78934        1.44175       -0.26386
H         -1.31668        0.70349        1.27856
H         -1.19997       -0.56403       -1.47320
H         -1.98347       -1.22807       -0.04027
H          0.62322       -1.82554       -0.82064
H          0.51778        1.52910       -1.01116
H          0.70556        1.86871        0.72408
H          1.33216       -2.23273        1.53381
H         -0.01099       -1.29553        2.13127
H         -0.64708       -3.53074        2.45426
H         -1.60323       -3.06821        1.06454
H         -0.02115       -6.20759       -1.17650
H          0.02817       -5.07409       -2.51075
H          2.31238       -5.70754       -0.56245
H          2.42230       -3.29291       -1.14872
H          3.76150       -4.21580       -1.79439
H          1.37699       -3.08811       -3.31537
H          3.09535       -2.80309       -3.57498
H          2.37872       -4.37570       -5.36302
H          2.45455       -6.72036       -4.78191
H          3.40772       -6.82215       -2.33072
H          1.73342       -7.33727       -2.50030

--Link1--
%chk=JID_7994.chk
%mem=8GB
%nprocshared=4
# B3LYP/6-311++G(d,p) empiricaldispersion=gd3bj scf=xqc pop=npa geom=check

CID_78859283_JID_7994_Energie_neutraal

0 1

--Link1--
%chk=JID_7994.chk
%mem=8GB
%nprocshared=4
# B3LYP/6-311++G(d,p) empiricaldispersion=gd3bj scf=xqc pop=npa geom=check

CID_78859283_JID_7994_Energie_kation

1 2

--Link1--
%chk=JID_7994.chk
%mem=8GB
%nprocshared=4
# B3LYP/6-311++G(d,p) empiricaldispersion=gd3bj scf=xqc pop=npa geom=check

CID_78859283_JID_7994_Energie_anion

-1 2
