%chk=JID_7885.chk
%mem=8GB
%nprocshared=4
# opt freq B3LYP/6-31G(d) empiricaldispersion=gd3bj scf=xqc

CID_81183734_JID_7885_neutraal

0 1
C         -2.94600        0.04200        0.02500
C         -1.50922        0.09255        0.45338
C         -0.71945       -1.06151        0.41964
C          0.61672       -1.02486        0.85160
C          1.17231        0.15524        1.36128
C          0.37389        1.30742        1.38181
C         -0.95542        1.27432        0.95029
N          2.54446        0.29166        1.65864
S          1.54101       -2.54911        0.83783
O          1.99444       -2.78089        2.20097
O          0.70241       -3.56113        0.21307
C          2.96935       -2.29151       -0.18434
C          2.57074       -1.68592       -1.48326
N          1.94583       -2.32429       -2.45062
C          1.74964       -1.48658       -3.52890
C          2.26030       -0.21603       -3.39129
S          3.01957       -0.06273       -1.86494
H         -3.08584       -0.68151       -0.78507
H         -3.57865       -0.24506        0.87048
H         -3.27701        1.01630       -0.34966
H         -1.15164       -1.99410        0.05862
H          0.78144        2.25207        1.73486
H         -1.55292        2.18243        0.99863
H          3.01837        0.78665        0.90177
H          2.66826        0.85916        2.49898
H          3.69324       -1.68686        0.36688
H          3.42089       -3.27529       -0.35047
H          1.22726       -1.86061       -4.40135
H          2.23210        0.59993       -4.09887

--Link1--
%chk=JID_7885.chk
%mem=8GB
%nprocshared=4
# B3LYP/6-311++G(d,p) empiricaldispersion=gd3bj scf=xqc pop=npa geom=check

CID_81183734_JID_7885_Energie_neutraal

0 1

--Link1--
%chk=JID_7885.chk
%mem=8GB
%nprocshared=4
# B3LYP/6-311++G(d,p) empiricaldispersion=gd3bj scf=xqc pop=npa geom=check

CID_81183734_JID_7885_Energie_kation

1 2

--Link1--
%chk=JID_7885.chk
%mem=8GB
%nprocshared=4
# B3LYP/6-311++G(d,p) empiricaldispersion=gd3bj scf=xqc pop=npa geom=check

CID_81183734_JID_7885_Energie_anion

-1 2
