%chk=JID_3803.chk
%mem=8GB
%nprocshared=4
# opt freq B3LYP/6-31G(d) empiricaldispersion=gd3bj scf=xqc

CID_80193241_JID_3803_neutraal

0 1
C          1.06688       -0.07431       -0.00237
C          1.18290       -1.24776       -0.95544
C          1.62015       -2.51031       -0.23837
O          0.77906       -3.32189        0.15253
N          2.96741       -2.69779       -0.02271
C          4.05820       -1.84909       -0.45893
C          5.32077       -2.66698       -0.22499
C          4.96065       -3.69635        0.86829
C          3.44381       -3.89183        0.65403
C          5.68540       -5.04834        0.61749
C          7.20796       -4.99371        0.66747
C          5.28489       -3.19467        2.30326
C          4.59878       -1.91877        2.77336
H          0.37259       -0.30190        0.81343
H          0.69592        0.80952       -0.53036
H          2.03109        0.17830        0.44754
H          0.20693       -1.44720       -1.41408
H          1.86141       -1.01490       -1.78016
H          4.04812       -0.93219        0.13507
H          3.94622       -1.57942       -1.51256
H          5.57455       -3.18049       -1.16144
H          6.17523       -2.03466        0.03702
H          3.22454       -4.73851       -0.00778
H          2.88968       -4.04932        1.58581
H          5.33714       -5.79000        1.34785
H          5.39960       -5.43714       -0.36898
H          7.57151       -4.76469        1.67290
H          7.62238       -5.96766        0.38617
H          7.60849       -4.24947       -0.02682
H          5.03246       -3.99015        3.01680
H          6.36450       -3.02876        2.39789
H          3.50985       -1.98807        2.70959
H          4.85346       -1.73094        3.82225
H          4.93698       -1.05048        2.20219

--Link1--
%chk=JID_3803.chk
%mem=8GB
%nprocshared=4
# B3LYP/6-311++G(d,p) empiricaldispersion=gd3bj scf=xqc pop=npa geom=check

CID_80193241_JID_3803_Energie_neutraal

0 1

--Link1--
%chk=JID_3803.chk
%mem=8GB
%nprocshared=4
# B3LYP/6-311++G(d,p) empiricaldispersion=gd3bj scf=xqc pop=npa geom=check

CID_80193241_JID_3803_Energie_kation

1 2

--Link1--
%chk=JID_3803.chk
%mem=8GB
%nprocshared=4
# B3LYP/6-311++G(d,p) empiricaldispersion=gd3bj scf=xqc pop=npa geom=check

CID_80193241_JID_3803_Energie_anion

-1 2
