%chk=JID_6222.chk
%mem=8GB
%nprocshared=4
# opt freq B3LYP/6-31G(d) empiricaldispersion=gd3bj scf=xqc

CID_68642999_JID_6222_neutraal

0 1
C          0.92739       -0.03271       -0.06048
C          0.23060       -0.76556        0.81653
C         -1.23288       -0.90291        0.77022
C         -1.95133       -0.43595        1.88258
C         -3.34339       -0.53015        1.92624
C         -4.03486       -1.09890        0.86118
C         -3.33518       -1.57570       -0.24788
C         -1.93545       -1.48829       -0.30400
C         -1.27389       -2.01836       -1.50579
C         -0.56431       -3.15756       -1.58353
C          0.16116       -3.59174       -2.82445
C          1.62238       -3.92467       -2.52075
C          1.73174       -4.97156       -1.41322
C          1.03088       -4.52103       -0.13657
C         -0.38803       -4.07731       -0.41597
O         -1.33244       -4.43368        0.28180
H          0.44398        0.50562       -0.86980
H          2.00556        0.05305        0.02547
H          0.73133       -1.27336        1.63659
H         -1.42769        0.01095        2.72487
H         -3.88541       -0.16524        2.79458
H         -5.11767       -1.18339        0.89673
H         -3.88842       -2.03620       -1.06329
H         -1.37681       -1.38089       -2.38062
H         -0.34069       -4.47425       -3.24045
H          0.12602       -2.81394       -3.59649
H          2.10866       -4.29936       -3.42863
H          2.15799       -3.01483       -2.22134
H          1.28465       -5.91080       -1.76254
H          2.78676       -5.17759       -1.20097
H          1.00839       -5.34928        0.57992
H          1.56577       -3.68734        0.33130

--Link1--
%chk=JID_6222.chk
%mem=8GB
%nprocshared=4
# B3LYP/6-311++G(d,p) empiricaldispersion=gd3bj scf=xqc pop=npa geom=check

CID_68642999_JID_6222_Energie_neutraal

0 1

--Link1--
%chk=JID_6222.chk
%mem=8GB
%nprocshared=4
# B3LYP/6-311++G(d,p) empiricaldispersion=gd3bj scf=xqc pop=npa geom=check

CID_68642999_JID_6222_Energie_kation

1 2

--Link1--
%chk=JID_6222.chk
%mem=8GB
%nprocshared=4
# B3LYP/6-311++G(d,p) empiricaldispersion=gd3bj scf=xqc pop=npa geom=check

CID_68642999_JID_6222_Energie_anion

-1 2
