%chk=JID_9275.chk
%mem=8GB
%nprocshared=4
# opt freq B3LYP/6-31G(d) empiricaldispersion=gd3bj scf=xqc

CID_81616826_JID_9275_neutraal

0 1
C          2.47000        0.00000        0.00400
C          1.56637        1.19804        0.30215
C          0.23399        0.55470        0.63965
C         -0.99132        1.43310        0.44073
C         -2.24870        0.57818        0.65121
C         -2.22008       -0.66760       -0.24983
C         -0.91514       -1.45487       -0.08174
N          0.21501       -0.56294       -0.30564
C          1.52701       -1.19051       -0.18569
N         -3.45608        1.36272        0.40032
C         -4.40822        1.78142        1.29433
O         -5.45424        2.29403        0.91257
C         -4.17066        1.59613        2.73738
C         -3.15726        2.31426        3.38261
C         -2.93671        2.12305        4.74767
C         -3.73950        1.22611        5.44964
C         -4.76316        0.52690        4.81499
C         -4.98837        0.71688        3.45154
O         -3.55597        1.00545        6.78250
H          3.15931       -0.18594        0.83490
H          3.06654        0.18891       -0.89508
H          1.95503        1.80736        1.12399
H          1.49203        1.83696       -0.58670
H          0.26249        0.18845        1.67673
H         -0.99915        1.87038       -0.56688
H         -0.97130        2.27353        1.14323
H         -2.26254        0.22860        1.68938
H         -3.07373       -1.31608       -0.01782
H         -2.33395       -0.36881       -1.30082
H         -0.87755       -1.90404        0.91883
H         -0.89884       -2.27290       -0.81104
H          1.58575       -1.85079        0.68853
H          1.78472       -1.77018       -1.07742
H         -3.70233        1.55723       -0.56373
H         -2.55190        3.02491        2.82710
H         -2.14752        2.67987        5.24294
H         -5.38683       -0.15826        5.38259
H         -5.79201        0.18442        2.94954
H         -2.84803        1.58813        7.10281

--Link1--
%chk=JID_9275.chk
%mem=8GB
%nprocshared=4
# B3LYP/6-311++G(d,p) empiricaldispersion=gd3bj scf=xqc pop=npa geom=check

CID_81616826_JID_9275_Energie_neutraal

0 1

--Link1--
%chk=JID_9275.chk
%mem=8GB
%nprocshared=4
# B3LYP/6-311++G(d,p) empiricaldispersion=gd3bj scf=xqc pop=npa geom=check

CID_81616826_JID_9275_Energie_kation

1 2

--Link1--
%chk=JID_9275.chk
%mem=8GB
%nprocshared=4
# B3LYP/6-311++G(d,p) empiricaldispersion=gd3bj scf=xqc pop=npa geom=check

CID_81616826_JID_9275_Energie_anion

-1 2
