%chk=JID_10787.chk
%mem=8GB
%nprocshared=4
# opt freq B3LYP/6-31G(d) empiricaldispersion=gd3bj scf=xqc

CID_24257698_JID_10787_neutraal

0 1
C          0.99344        0.02256       -0.09720
O          0.17267       -0.02986        1.06582
C          0.84291       -0.14062        2.25420
C          2.11413       -0.69414        2.41002
C          2.73799       -0.72814        3.67324
C          2.06067       -0.19797        4.79018
C          2.71634       -0.20277        6.14898
C          4.21285       -0.51934        6.07944
N          4.47512       -1.67475        5.21062
C          4.14174       -1.32041        3.80482
C          5.26153       -0.50857        3.12690
C          6.53603       -1.07353        3.02107
C          7.55254       -0.35268        2.39989
C          7.28003        0.91334        1.90052
C          5.99677        1.40951        2.04593
N          4.99103        0.73191        2.64036
C          0.75397        0.28185        4.63241
C          0.15599        0.32714        3.37251
O          0.09385        0.77535        5.72908
C         -1.00905       -0.06162        6.07708
H          0.36490        0.34223       -0.93402
H          1.38780       -0.96960       -0.33858
H          1.80231        0.75366        0.01073
H          2.65577       -1.08986        1.55601
H          2.21447       -0.95712        6.76813
H          2.58787        0.77280        6.63236
H          4.57759       -0.74442        7.08799
H          4.77858        0.35700        5.73956
H          3.84338       -2.42606        5.48544
H          4.11071       -2.27863        3.26572
H          6.73469       -2.05985        3.42926
H          8.54898       -0.77603        2.31368
H          8.04927        1.50221        1.41439
H          5.73245        2.39616        1.67715
H         -0.83409        0.75574        3.25115
H         -1.81157        0.00601        5.33561
H         -0.69192       -1.10292        6.20565
H         -1.40562        0.29026        7.03423

--Link1--
%chk=JID_10787.chk
%mem=8GB
%nprocshared=4
# B3LYP/6-311++G(d,p) empiricaldispersion=gd3bj scf=xqc pop=npa geom=check

CID_24257698_JID_10787_Energie_neutraal

0 1

--Link1--
%chk=JID_10787.chk
%mem=8GB
%nprocshared=4
# B3LYP/6-311++G(d,p) empiricaldispersion=gd3bj scf=xqc pop=npa geom=check

CID_24257698_JID_10787_Energie_kation

1 2

--Link1--
%chk=JID_10787.chk
%mem=8GB
%nprocshared=4
# B3LYP/6-311++G(d,p) empiricaldispersion=gd3bj scf=xqc pop=npa geom=check

CID_24257698_JID_10787_Energie_anion

-1 2
