%chk=JID_7665.chk
%mem=8GB
%nprocshared=4
# opt freq B3LYP/6-31G(d) empiricaldispersion=gd3bj scf=xqc

CID_64286046_JID_7665_neutraal

0 1
C          0.93233       -0.00552        0.07342
C          0.38062        0.28532       -1.33273
C          0.96753       -0.74502       -2.32347
C         -1.15093        0.09518       -1.32769
N          0.74313        1.66331       -1.71535
C          0.08599        2.82184       -1.38868
C          0.78102        3.86001       -1.97700
C          1.87568        3.22001       -2.59747
N          1.86844        1.89799       -2.42256
C          0.45055        5.31028       -1.97081
N          1.53154        6.02415       -1.30230
C          1.23372        7.44861       -1.11971
C          0.22928        7.80762        0.00225
C          0.72107        7.40464        1.39860
O          1.93658        8.11429        1.67128
C          2.78918        7.39108        2.54831
O          0.01692        9.22698       -0.01286
H          0.68583       -1.02398        0.39391
H          0.51862        0.68727        0.81546
H          2.02316        0.10010        0.10158
H          0.65935       -1.76425       -2.06316
H          0.63062       -0.54566       -3.34761
H          2.06362       -0.73016       -2.32421
H         -1.63689        0.70548       -0.55852
H         -1.58696        0.36899       -2.29553
H         -1.41926       -0.94768       -1.12258
H         -0.81625        2.82019       -0.79466
H          2.68132        3.67306       -3.16221
H          0.34265        5.66263       -3.00305
H         -0.50617        5.46088       -1.45905
H          1.74461        5.58016       -0.41198
H          2.18284        7.96130       -0.91798
H          0.89111        7.88502       -2.06715
H         -0.74086        7.34066       -0.19370
H         -0.00928        7.70851        2.15689
H          0.86378        6.32053        1.46367
H          2.26261        7.11768        3.46722
H          3.16319        6.49425        2.04438
H          3.64166        8.02651        2.80179
H          0.80289        9.60997        0.42680

--Link1--
%chk=JID_7665.chk
%mem=8GB
%nprocshared=4
# B3LYP/6-311++G(d,p) empiricaldispersion=gd3bj scf=xqc pop=npa geom=check

CID_64286046_JID_7665_Energie_neutraal

0 1

--Link1--
%chk=JID_7665.chk
%mem=8GB
%nprocshared=4
# B3LYP/6-311++G(d,p) empiricaldispersion=gd3bj scf=xqc pop=npa geom=check

CID_64286046_JID_7665_Energie_kation

1 2

--Link1--
%chk=JID_7665.chk
%mem=8GB
%nprocshared=4
# B3LYP/6-311++G(d,p) empiricaldispersion=gd3bj scf=xqc pop=npa geom=check

CID_64286046_JID_7665_Energie_anion

-1 2
