%chk=JID_10112.chk
%mem=8GB
%nprocshared=4
# opt freq B3LYP/6-31G(d) empiricaldispersion=gd3bj scf=xqc

CID_43725865_JID_10112_neutraal

0 1
C         -1.75400       -1.86300       -0.96200
C         -1.43781       -0.74985        0.06100
C         -2.21263        0.51749       -0.38344
C         -1.60799        1.80065        0.17916
C         -0.15678        1.98867       -0.29677
C          0.65639        0.76458        0.08012
C          2.02758        0.92754        0.35781
C          2.83790       -0.16128        0.66980
C          2.28691       -1.43285        0.72503
C          0.92298       -1.60934        0.49146
C          0.07884       -0.52255        0.17776
N         -0.19434        2.23157       -1.74548
C          0.90243        2.98176       -2.40310
C          1.99349        2.02960       -2.92039
C          0.25620        3.64300       -3.63899
C          1.44196        4.15233       -1.54045
O          0.74203        5.00302       -0.99964
O          2.80526        4.14215       -1.47187
C          3.36013        5.21178       -0.70543
C         -1.97816       -1.18525        1.44451
H         -1.31732       -1.63399       -1.94134
H         -1.36684       -2.83891       -0.65041
H         -2.83628       -1.97659       -1.09590
H         -2.23945        0.58080       -1.47872
H         -3.26483        0.44969       -0.07785
H         -2.21968        2.65908       -0.12710
H         -1.64100        1.77694        1.27604
H          0.22183        2.85752        0.25149
H          2.47710        1.91772        0.32444
H          3.89568       -0.01441        0.86947
H          2.91090       -2.28772        0.97137
H          0.51838       -2.61467        0.58602
H         -0.35280        1.35208       -2.23361
H          1.56554        1.20804       -3.50698
H          2.69730        2.55804       -3.57517
H          2.58669        1.59075       -2.11705
H         -0.56537        4.31243       -3.35499
H          0.98667        4.25021       -4.18732
H         -0.14677        2.89669       -4.33415
H          3.09367        6.17808       -1.14502
H          3.02521        5.15105        0.33475
H          4.44889        5.11215       -0.72462
H         -1.53844       -2.13237        1.77738
H         -1.75942       -0.43741        2.21526
H         -3.06444       -1.33020        1.41782

--Link1--
%chk=JID_10112.chk
%mem=8GB
%nprocshared=4
# B3LYP/6-311++G(d,p) empiricaldispersion=gd3bj scf=xqc pop=npa geom=check

CID_43725865_JID_10112_Energie_neutraal

0 1

--Link1--
%chk=JID_10112.chk
%mem=8GB
%nprocshared=4
# B3LYP/6-311++G(d,p) empiricaldispersion=gd3bj scf=xqc pop=npa geom=check

CID_43725865_JID_10112_Energie_kation

1 2

--Link1--
%chk=JID_10112.chk
%mem=8GB
%nprocshared=4
# B3LYP/6-311++G(d,p) empiricaldispersion=gd3bj scf=xqc pop=npa geom=check

CID_43725865_JID_10112_Energie_anion

-1 2
