%chk=JID_9380.chk
%mem=8GB
%nprocshared=4
# opt freq B3LYP/6-31G(d) empiricaldispersion=gd3bj scf=xqc

CID_88341226_JID_9380_neutraal

0 1
C          1.85400        1.50000       -0.02200
C          0.68622        0.46810       -0.24783
C         -0.41626        0.90706        1.13347
C         -1.87346       -0.02275        1.40119
C         -2.35325       -1.38789        0.39505
C         -1.42116       -1.95144       -0.97322
C          0.13300       -1.10829       -1.40713
C          0.60792       -1.99520       -2.62020
C          3.79211       -0.92566       -1.60103
C          2.34363       -0.64907       -1.30856
C          1.63295       -1.43490        0.10290
C         -0.09144       -1.10174        0.47317
C         -1.11657        0.15131       -0.73954
C         -0.26843        0.88189       -2.13705
C          1.41893        0.46076       -2.37591
S          2.22882        1.20964       -3.76169
O          2.52219        0.17410       -4.72540
O          1.48814        2.40025       -4.12061
O          3.62831        1.76424       -3.18358
H          2.39249        1.22202        0.89197
H          2.59201        1.67399       -0.80311
H          1.39785        2.48396        0.14613
H         -0.16104        1.72720        1.79852
H         -2.51618        0.25143        2.23693
H         -3.27692       -1.91001        0.64198
H         -1.75780       -2.80705       -1.55192
H          0.76825       -3.01556       -2.25043
H         -0.21253       -2.02523       -3.34826
H          1.49466       -1.72767       -3.19317
H          4.12381       -1.80985       -1.04921
H          3.93740       -1.12515       -2.66513
H          4.40562       -0.07500       -1.29509
H          2.20906       -2.10102        0.73536
H         -0.41317       -1.65064        1.37123
H         -2.16345        0.49000       -0.69989
H         -0.78617        1.55927       -2.80724
H          3.66301        2.72312       -3.38613

--Link1--
%chk=JID_9380.chk
%mem=8GB
%nprocshared=4
# B3LYP/6-311++G(d,p) empiricaldispersion=gd3bj scf=xqc pop=npa geom=check

CID_88341226_JID_9380_Energie_neutraal

0 1

--Link1--
%chk=JID_9380.chk
%mem=8GB
%nprocshared=4
# B3LYP/6-311++G(d,p) empiricaldispersion=gd3bj scf=xqc pop=npa geom=check

CID_88341226_JID_9380_Energie_kation

1 2

--Link1--
%chk=JID_9380.chk
%mem=8GB
%nprocshared=4
# B3LYP/6-311++G(d,p) empiricaldispersion=gd3bj scf=xqc pop=npa geom=check

CID_88341226_JID_9380_Energie_anion

-1 2
