%chk=JID_8842.chk
%mem=8GB
%nprocshared=4
# opt freq B3LYP/6-31G(d) empiricaldispersion=gd3bj scf=xqc

CID_59531603_JID_8842_neutraal

0 1
C          0.99803       -0.06807       -0.07323
C          0.71517        0.20752       -1.54391
C          1.55913       -0.69253       -2.44048
C         -0.75311        0.10026       -1.95076
O         -1.15049        0.68031       -2.96914
C         -1.68028       -0.86836       -1.22696
N         -1.86593       -2.04327       -2.06213
C         -1.29049       -3.27326       -1.85601
O         -1.02562       -3.98235       -2.82307
C         -0.98910       -3.67624       -0.49013
C          0.19034       -4.29057       -0.10728
N          0.14171       -4.52437        1.23920
C         -1.06413       -4.10503        1.75067
C         -1.55292       -4.15904        3.06176
C         -2.84787       -3.68644        3.29223
C         -3.62470       -3.18766        2.25036
C         -3.12009       -3.13928        0.94608
C         -1.80810       -3.59239        0.68588
H          0.88866       -1.12938        0.17236
H          0.32189        0.50318        0.57204
H          2.02450        0.21975        0.17902
H          0.99820        1.25163       -1.73426
H          1.32132       -1.74967       -2.28342
H          1.38218       -0.46923       -3.49860
H          2.62657       -0.55014       -2.24095
H         -1.31255       -1.10361       -0.23216
H         -2.65537       -0.38197       -1.12125
H         -2.02268       -1.85921       -3.04810
H          1.05800       -4.57392       -0.68947
H          0.87224       -4.96480        1.78197
H         -0.95766       -4.56310        3.87438
H         -3.25873       -3.72127        4.29897
H         -4.63579       -2.83971        2.44832
H         -3.74361       -2.76175        0.14018

--Link1--
%chk=JID_8842.chk
%mem=8GB
%nprocshared=4
# B3LYP/6-311++G(d,p) empiricaldispersion=gd3bj scf=xqc pop=npa geom=check

CID_59531603_JID_8842_Energie_neutraal

0 1

--Link1--
%chk=JID_8842.chk
%mem=8GB
%nprocshared=4
# B3LYP/6-311++G(d,p) empiricaldispersion=gd3bj scf=xqc pop=npa geom=check

CID_59531603_JID_8842_Energie_kation

1 2

--Link1--
%chk=JID_8842.chk
%mem=8GB
%nprocshared=4
# B3LYP/6-311++G(d,p) empiricaldispersion=gd3bj scf=xqc pop=npa geom=check

CID_59531603_JID_8842_Energie_anion

-1 2
