%chk=JID_4934.chk
%mem=8GB
%nprocshared=4
# opt freq B3LYP/6-31G(d) empiricaldispersion=gd3bj scf=xqc

CID_142152649_JID_4934_neutraal

0 1
C          0.91140        0.04572        0.00770
C          1.45104       -3.54924       -2.34184
C          0.28984       -3.63825       -1.36338
C          0.73275       -4.23132       -0.02408
C         -0.40884       -4.38029        0.96129
C         -0.96709       -5.58043        1.21789
C         -2.03554       -5.89930        2.21730
C         -0.79236       -3.16244        1.70670
C          0.04313       -2.75419        2.76047
C         -0.25245       -1.61596        3.51017
C         -1.38800       -0.87000        3.21543
C         -2.23038       -1.26533        2.17597
C         -1.95477       -2.41761        1.41856
C         -2.88436       -2.77550        0.29108
H          1.44016       -0.88379        0.22825
H          0.82740        0.64157        0.91906
H         -0.08702       -0.18165       -0.37159
H          1.46643        0.60896       -0.74558
H          2.24852       -2.91203       -1.94625
H          1.11431       -3.12145       -3.29132
H          1.87036       -4.53972       -2.54513
H         -0.12065       -2.63372       -1.21734
H         -0.50462       -4.25290       -1.80319
H          1.19345       -5.21164       -0.20564
H          1.52744       -3.61228        0.41157
H         -0.61451       -6.44354        0.65513
H         -2.91919       -6.28664        1.70075
H         -1.67567       -6.67271        2.90322
H         -2.34372       -5.04052        2.81849
H          0.93350       -3.32988        3.00408
H          0.40461       -1.31346        4.32080
H         -1.61942        0.02092        3.79315
H         -3.11102       -0.66475        1.95773
H         -2.45287       -2.47029       -0.66633
H         -3.84979       -2.26920        0.40127
H         -3.09750       -3.84749        0.26891

--Link1--
%chk=JID_4934.chk
%mem=8GB
%nprocshared=4
# B3LYP/6-311++G(d,p) empiricaldispersion=gd3bj scf=xqc pop=npa geom=check

CID_142152649_JID_4934_Energie_neutraal

0 1

--Link1--
%chk=JID_4934.chk
%mem=8GB
%nprocshared=4
# B3LYP/6-311++G(d,p) empiricaldispersion=gd3bj scf=xqc pop=npa geom=check

CID_142152649_JID_4934_Energie_kation

1 2

--Link1--
%chk=JID_4934.chk
%mem=8GB
%nprocshared=4
# B3LYP/6-311++G(d,p) empiricaldispersion=gd3bj scf=xqc pop=npa geom=check

CID_142152649_JID_4934_Energie_anion

-1 2
