%chk=JID_2972.chk
%mem=8GB
%nprocshared=4
# opt freq B3LYP/6-31G(d) empiricaldispersion=gd3bj scf=xqc

CID_134382186_JID_2972_neutraal

0 1
C          0.91660        0.05360       -0.01310
C          0.65422       -0.05382        1.49156
C          1.90234       -0.51796        2.25298
C          2.98217        0.56194        2.35128
C          2.44470        1.87345        2.93530
C          1.19682        2.35261        2.16735
C          0.12460        1.26414        2.07116
C          3.53150        2.94470        3.01441
N          3.04634        3.79588        4.09540
C          2.48979        2.83593        5.02142
O          2.09022        1.66669        4.31548
O          1.38636        3.43438        5.63325
H          0.00154        0.33877       -0.54316
H          1.24536       -0.91062       -0.41538
H          1.68524        0.79425       -0.25182
H         -0.12415       -0.81661        1.62443
H          1.60627       -0.81682        3.26687
H          2.32332       -1.41311        1.77972
H          3.41488        0.74333        1.36028
H          3.78792        0.17290        2.98664
H          1.48288        2.67486        1.15900
H          0.74407        3.22097        2.66088
H         -0.71495        1.63142        1.46884
H         -0.27724        1.07287        3.07458
H          4.49900        2.51239        3.29923
H          3.66132        3.49793        2.07966
H          3.81715        4.27907        4.54904
H          3.21285        2.53882        5.78847
H          1.10391        4.06687        4.95421

--Link1--
%chk=JID_2972.chk
%mem=8GB
%nprocshared=4
# B3LYP/6-311++G(d,p) empiricaldispersion=gd3bj scf=xqc pop=npa geom=check

CID_134382186_JID_2972_Energie_neutraal

0 1

--Link1--
%chk=JID_2972.chk
%mem=8GB
%nprocshared=4
# B3LYP/6-311++G(d,p) empiricaldispersion=gd3bj scf=xqc pop=npa geom=check

CID_134382186_JID_2972_Energie_kation

1 2

--Link1--
%chk=JID_2972.chk
%mem=8GB
%nprocshared=4
# B3LYP/6-311++G(d,p) empiricaldispersion=gd3bj scf=xqc pop=npa geom=check

CID_134382186_JID_2972_Energie_anion

-1 2
