%chk=JID_7173.chk
%mem=8GB
%nprocshared=4
# opt freq B3LYP/6-31G(d) empiricaldispersion=gd3bj scf=xqc

CID_103614634_JID_7173_neutraal

0 1
C          1.08240        0.04576        0.03341
C          0.56534        1.05348       -0.99262
C          0.98984        0.62055       -2.39895
C         -0.96749        1.21105       -0.93651
C         -1.54266        1.68435        0.40612
N         -1.06357        3.02054        0.75232
C         -1.64865        3.52823        2.00292
C         -1.09790        2.90023        3.32053
C          0.42909        2.96566        3.37946
C          1.17023        1.78802        3.56570
C          2.56497        1.82263        3.61186
C          3.23749        3.03427        3.47769
C          2.51594        4.21290        3.30252
C          1.12083        4.18040        3.25728
C         -1.73367        3.54502        4.59549
C         -3.26725        3.52889        4.55874
C         -1.27568        2.83480        5.87949
H          0.61542       -0.93537       -0.10421
H          0.88216        0.37571        1.05449
H          2.16645       -0.08104       -0.05970
H          1.03828        2.02222       -0.79282
H          0.56076       -0.35218       -2.66281
H          0.66197        1.35047       -3.14661
H          2.07989        0.53956       -2.46864
H         -1.28227        1.91350       -1.72007
H         -1.43600        0.24954       -1.18519
H         -2.63517        1.70457        0.31067
H         -1.30281        0.95909        1.18966
H         -0.04652        3.00988        0.84489
H         -1.47485        4.61100        2.02155
H         -2.73596        3.40658        1.94635
H         -1.39323        1.84175        3.31608
H          0.66450        0.83110        3.67337
H          3.12605        0.90235        3.75235
H          4.32331        3.06119        3.51237
H          3.03953        5.15982        3.20078
H          0.58045        5.11439        3.12131
H         -1.41789        4.59412        4.66699
H         -3.64862        2.51898        4.37421
H         -3.68542        3.87915        5.50890
H         -3.65550        4.19388        3.78166
H         -0.19762        2.93750        6.03572
H         -1.76619        3.26591        6.75913
H         -1.51798        1.76699        5.84831

--Link1--
%chk=JID_7173.chk
%mem=8GB
%nprocshared=4
# B3LYP/6-311++G(d,p) empiricaldispersion=gd3bj scf=xqc pop=npa geom=check

CID_103614634_JID_7173_Energie_neutraal

0 1

--Link1--
%chk=JID_7173.chk
%mem=8GB
%nprocshared=4
# B3LYP/6-311++G(d,p) empiricaldispersion=gd3bj scf=xqc pop=npa geom=check

CID_103614634_JID_7173_Energie_kation

1 2

--Link1--
%chk=JID_7173.chk
%mem=8GB
%nprocshared=4
# B3LYP/6-311++G(d,p) empiricaldispersion=gd3bj scf=xqc pop=npa geom=check

CID_103614634_JID_7173_Energie_anion

-1 2
