%chk=JID_2298.chk
%mem=8GB
%nprocshared=4
# opt freq B3LYP/6-31G(d) empiricaldispersion=gd3bj scf=xqc

CID_17923004_JID_2298_neutraal

0 1
C          1.04734       -0.06598        0.05836
C          0.72152        1.14666        0.91891
C          1.77210        2.25349        0.82588
O          1.55260        3.18240       -0.24122
C          1.80227        2.81041       -1.54869
C          2.97037        2.28236       -1.98484
C          4.22838        2.08628       -1.19642
C          3.13366        1.94104       -3.41160
O          3.13123        2.70632       -4.35611
O          3.31964        0.61858       -3.55898
C          0.64960        3.19528       -2.46621
C         -0.68999        2.58713       -2.07273
H          1.03818        0.17061       -1.00741
H          0.30628       -0.85394        0.22774
H          2.03224       -0.47178        0.31099
H         -0.26912        1.52959        0.65643
H          0.67276        0.80457        1.95985
H          1.68963        2.85644        1.73829
H          2.78395        1.84619        0.83998
H          4.27781        1.06993       -0.79354
H          5.11307        2.24098       -1.82510
H          4.31246        2.80787       -0.37805
H          3.41596        0.50335       -4.52687
H          0.55584        4.28857       -2.45169
H          0.83413        2.92182       -3.50804
H         -1.01076        2.93019       -1.08453
H         -1.46128        2.88791       -2.78967
H         -0.64611        1.49420       -2.06890

--Link1--
%chk=JID_2298.chk
%mem=8GB
%nprocshared=4
# B3LYP/6-311++G(d,p) empiricaldispersion=gd3bj scf=xqc pop=npa geom=check

CID_17923004_JID_2298_Energie_neutraal

0 1

--Link1--
%chk=JID_2298.chk
%mem=8GB
%nprocshared=4
# B3LYP/6-311++G(d,p) empiricaldispersion=gd3bj scf=xqc pop=npa geom=check

CID_17923004_JID_2298_Energie_kation

1 2

--Link1--
%chk=JID_2298.chk
%mem=8GB
%nprocshared=4
# B3LYP/6-311++G(d,p) empiricaldispersion=gd3bj scf=xqc pop=npa geom=check

CID_17923004_JID_2298_Energie_anion

-1 2
