%chk=JID_3026.chk
%mem=8GB
%nprocshared=4
# opt freq B3LYP/6-31G(d) empiricaldispersion=gd3bj scf=xqc

CID_83908567_JID_3026_neutraal

0 1
C          1.04269       -0.05160       -0.07426
C          0.69835        0.78561       -1.31664
C         -0.33464        1.86628       -0.94199
S          0.38066        3.22546        0.02420
C          1.63244        3.74790       -1.18102
C          2.61866        2.62303       -1.55147
C          1.90141        1.36043       -2.13894
C          2.91775        0.24626       -2.55994
O          3.10394       -0.08819       -3.72760
O          3.56563       -0.30372       -1.50182
C          4.50272       -1.32545       -1.84695
N          1.28082        1.84296       -3.43780
C          3.59496        2.38795       -0.38771
H          0.12545       -0.36630        0.43786
H          1.64641        0.48659        0.65563
H          1.56243       -0.97437       -0.34561
H          0.16871        0.07570       -1.97144
H         -0.80457        2.28925       -1.83647
H         -1.14767        1.42709       -0.35319
H          2.17193        4.60175       -0.75619
H          1.11731        4.12849       -2.06964
H          3.25773        3.03275       -2.34957
H          3.99551       -2.15927       -2.34224
H          5.29542       -0.91868       -2.48250
H          4.95513       -1.69522       -0.92273
H          2.04412        2.12593       -4.06087
H          0.89296        1.02571       -3.91994
H          4.45491        1.79039       -0.70189
H          4.00699        3.34250       -0.03891
H          3.13251        1.90697        0.47351

--Link1--
%chk=JID_3026.chk
%mem=8GB
%nprocshared=4
# B3LYP/6-311++G(d,p) empiricaldispersion=gd3bj scf=xqc pop=npa geom=check

CID_83908567_JID_3026_Energie_neutraal

0 1

--Link1--
%chk=JID_3026.chk
%mem=8GB
%nprocshared=4
# B3LYP/6-311++G(d,p) empiricaldispersion=gd3bj scf=xqc pop=npa geom=check

CID_83908567_JID_3026_Energie_kation

1 2

--Link1--
%chk=JID_3026.chk
%mem=8GB
%nprocshared=4
# B3LYP/6-311++G(d,p) empiricaldispersion=gd3bj scf=xqc pop=npa geom=check

CID_83908567_JID_3026_Energie_anion

-1 2
