%chk=JID_6796.chk
%mem=8GB
%nprocshared=4
# opt freq B3LYP/6-31G(d) empiricaldispersion=gd3bj scf=xqc

CID_150622435_JID_6796_neutraal

0 1
C          0.50700        1.57800        0.12600
C          1.20559        0.49957        0.94544
N          1.30574       -0.79263        0.27617
C          0.11153       -1.60294        0.53548
C         -1.20096       -1.16015       -0.15301
N         -1.62486        0.24786        0.07343
C         -0.74080        1.15918       -0.65605
C         -3.07933        0.40119       -0.19803
C         -3.55727        0.29566       -1.65835
C         -3.53939        1.61011       -2.42321
N         -4.19986        2.68064       -1.68064
C         -3.73618        2.91154       -0.30991
C         -3.70264        1.62482        0.50578
N         -4.59927        3.74366       -2.47700
N         -5.04468        4.77171       -1.92226
N         -5.44773        5.71679       -1.42568
H          1.22312        2.00167       -0.59027
H          0.24082        2.39602        0.80831
H          2.22446        0.84683        1.15585
H          0.72945        0.40298        1.92968
H          1.42727       -0.66265       -0.72595
H         -0.05387       -1.68617        1.61753
H          0.33246       -2.62274        0.19716
H         -1.97137       -1.84238        0.22979
H         -1.12348       -1.36742       -1.22843
H         -1.24225        2.09593       -0.89561
H         -0.45081        0.73844       -1.62806
H         -3.54731       -0.44626        0.32496
H         -2.99553       -0.46442       -2.21160
H         -4.59599       -0.06360       -1.63734
H         -2.52181        1.93213       -2.66207
H         -4.06902        1.47636       -3.37425
H         -4.41806        3.60670        0.19101
H         -2.75654        3.39473       -0.35465
H         -4.74370        1.36420        0.74593
H         -3.21675        1.80821        1.47213

--Link1--
%chk=JID_6796.chk
%mem=8GB
%nprocshared=4
# B3LYP/6-311++G(d,p) empiricaldispersion=gd3bj scf=xqc pop=npa geom=check

CID_150622435_JID_6796_Energie_neutraal

0 1

--Link1--
%chk=JID_6796.chk
%mem=8GB
%nprocshared=4
# B3LYP/6-311++G(d,p) empiricaldispersion=gd3bj scf=xqc pop=npa geom=check

CID_150622435_JID_6796_Energie_kation

1 2

--Link1--
%chk=JID_6796.chk
%mem=8GB
%nprocshared=4
# B3LYP/6-311++G(d,p) empiricaldispersion=gd3bj scf=xqc pop=npa geom=check

CID_150622435_JID_6796_Energie_anion

-1 2
