%chk=JID_4954.chk
%mem=8GB
%nprocshared=4
# opt freq B3LYP/6-31G(d) empiricaldispersion=gd3bj scf=xqc

CID_64344982_JID_4954_neutraal

0 1
C          0.99582       -0.06006        0.07985
C          0.81211       -0.93588       -1.14805
C          1.07025       -2.40915       -0.80468
C          2.57232       -2.72636       -0.77904
C          2.87357       -4.06134       -0.11738
C          2.71807       -5.27156       -1.01344
O          3.67624       -6.03017       -1.18182
N          1.46518       -5.54243       -1.54817
C          0.27082       -4.75035       -1.26748
C          0.33519       -3.32227       -1.78767
C          1.23705       -6.92299       -1.99261
C          1.05964       -7.90609       -0.82509
C         -0.08878       -7.51199        0.08935
C         -1.07390       -7.17392        0.87375
H          0.31666       -0.35736        0.88557
H          0.77663        0.98314       -0.17075
H          2.02010       -0.09846        0.46093
H         -0.21704       -0.79875       -1.50090
H          1.47392       -0.60119       -1.95518
H          0.65449       -2.58773        0.19683
H          3.09698       -1.95235       -0.20754
H          2.98573       -2.69949       -1.79498
H          2.27957       -4.21163        0.79118
H          3.92331       -4.04733        0.20478
H          0.08378       -4.76210       -0.18897
H         -0.58405       -5.23213       -1.75642
H         -0.69765       -2.96607       -1.89251
H          0.78969       -3.28249       -2.78490
H          0.36642       -6.94254       -2.65860
H          2.09620       -7.24413       -2.59394
H          0.86922       -8.91015       -1.22016
H          1.97409       -7.95867       -0.22360
H         -1.87744       -6.90547        1.52044

--Link1--
%chk=JID_4954.chk
%mem=8GB
%nprocshared=4
# B3LYP/6-311++G(d,p) empiricaldispersion=gd3bj scf=xqc pop=npa geom=check

CID_64344982_JID_4954_Energie_neutraal

0 1

--Link1--
%chk=JID_4954.chk
%mem=8GB
%nprocshared=4
# B3LYP/6-311++G(d,p) empiricaldispersion=gd3bj scf=xqc pop=npa geom=check

CID_64344982_JID_4954_Energie_kation

1 2

--Link1--
%chk=JID_4954.chk
%mem=8GB
%nprocshared=4
# B3LYP/6-311++G(d,p) empiricaldispersion=gd3bj scf=xqc pop=npa geom=check

CID_64344982_JID_4954_Energie_anion

-1 2
