%chk=JID_3352.chk
%mem=8GB
%nprocshared=4
# opt freq B3LYP/6-31G(d) empiricaldispersion=gd3bj scf=xqc

CID_141921020_JID_3352_neutraal

0 1
C          0.92594       -0.01276        0.06597
C          0.62522        1.33101        0.68994
C          3.22577       -2.46299       -3.24271
C          2.21543       -3.49163       -2.76008
N          1.72340       -3.09370       -1.43733
C          0.71274       -3.96996       -0.95804
C          1.07694       -4.98823       -0.05977
C          0.13729       -5.91248        0.39690
C         -1.17992       -5.83455       -0.04092
C         -1.55765       -4.83584       -0.94052
C         -0.62213       -3.90578       -1.42592
C         -1.05435       -2.81738       -2.32491
C         -1.99318       -2.92406       -3.27458
H          0.93884        0.06483       -1.02525
H          0.16646       -0.74676        0.35117
H          1.90187       -0.38059        0.39650
H          1.38357        2.06594        0.40398
H         -0.35149        1.69770        0.36044
H          0.61413        1.25416        1.78125
H          2.76929       -1.46999       -3.31431
H          3.60806       -2.73761       -4.23061
H          4.07468       -2.39223       -2.55438
H          1.40203       -3.55364       -3.49109
H          2.69832       -4.47477       -2.70498
H          2.49151       -3.06184       -0.76977
H          2.10276       -5.06956        0.28903
H          0.43437       -6.68986        1.09556
H         -1.91828       -6.54488        0.32152
H         -2.59933       -4.78066       -1.24656
H         -0.52929       -1.87305       -2.19581
H         -2.23650       -2.06981       -3.89838
H         -2.52462       -3.84897       -3.46928

--Link1--
%chk=JID_3352.chk
%mem=8GB
%nprocshared=4
# B3LYP/6-311++G(d,p) empiricaldispersion=gd3bj scf=xqc pop=npa geom=check

CID_141921020_JID_3352_Energie_neutraal

0 1

--Link1--
%chk=JID_3352.chk
%mem=8GB
%nprocshared=4
# B3LYP/6-311++G(d,p) empiricaldispersion=gd3bj scf=xqc pop=npa geom=check

CID_141921020_JID_3352_Energie_kation

1 2

--Link1--
%chk=JID_3352.chk
%mem=8GB
%nprocshared=4
# B3LYP/6-311++G(d,p) empiricaldispersion=gd3bj scf=xqc pop=npa geom=check

CID_141921020_JID_3352_Energie_anion

-1 2
