%chk=JID_10292.chk
%mem=8GB
%nprocshared=4
# opt freq B3LYP/6-31G(d) empiricaldispersion=gd3bj scf=xqc

CID_57785230_JID_10292_neutraal

0 1
C          0.97720        0.06363        0.07370
C          0.45118       -1.21485       -0.45478
N          0.92430       -2.37788        0.01393
O          0.22806       -3.36834       -0.66477
C         -0.65290       -2.79356       -1.52478
C         -1.53906       -3.43125       -2.37742
N         -2.35040       -2.66083       -3.15296
C         -2.25835       -1.30511       -3.09532
C         -1.37259       -0.62994       -2.24948
C         -0.54923       -1.41822       -1.43719
C         -3.17398       -0.57386       -3.98576
C         -4.54285       -0.89083       -4.02208
C         -5.42728       -0.18834       -4.84807
C         -4.95378        0.84000       -5.66610
C         -3.59366        1.15918       -5.65533
C         -2.71426        0.45902       -4.82186
C         -5.85617        1.56379       -6.51281
N         -6.58353        2.15586       -7.19628
O         -1.60482       -4.80694       -2.43317
C         -2.48596       -5.27828       -3.44629
H          0.57887        0.25330        1.07553
H          0.69882        0.90552       -0.56783
H          2.07015        0.03942        0.13565
H         -1.33709        0.45259       -2.20995
H         -4.92797       -1.69280       -3.39272
H         -6.48305       -0.45328       -4.84551
H         -3.20657        1.94959       -6.29618
H         -1.65660        0.71673       -4.84523
H         -3.52108       -4.98746       -3.23688
H         -2.17345       -4.93344       -4.43828
H         -2.44033       -6.37168       -3.44554

--Link1--
%chk=JID_10292.chk
%mem=8GB
%nprocshared=4
# B3LYP/6-311++G(d,p) empiricaldispersion=gd3bj scf=xqc pop=npa geom=check

CID_57785230_JID_10292_Energie_neutraal

0 1

--Link1--
%chk=JID_10292.chk
%mem=8GB
%nprocshared=4
# B3LYP/6-311++G(d,p) empiricaldispersion=gd3bj scf=xqc pop=npa geom=check

CID_57785230_JID_10292_Energie_kation

1 2

--Link1--
%chk=JID_10292.chk
%mem=8GB
%nprocshared=4
# B3LYP/6-311++G(d,p) empiricaldispersion=gd3bj scf=xqc pop=npa geom=check

CID_57785230_JID_10292_Energie_anion

-1 2
