%chk=JID_1891.chk
%mem=8GB
%nprocshared=4
# opt freq B3LYP/6-31G(d) empiricaldispersion=gd3bj scf=xqc

CID_53818685_JID_1891_neutraal

0 1
C          0.91510       -0.04667       -0.02477
C          0.52567        1.09404        0.90213
C          0.89184        2.48001        0.36072
C          0.29594        2.84452       -1.00372
C         -1.20634        2.81888       -1.02677
C         -1.97021        3.90202       -1.23339
C         -3.41445        3.84126       -1.26160
C         -4.17678        4.91764       -1.50505
O         -5.53817        5.02337       -1.56638
C         -6.33934        3.86733       -1.32114
C         -6.50148        3.03507       -2.58149
H          0.33500       -0.02797       -0.95194
H          0.72572       -1.00806        0.46353
H          1.97858       -0.00025       -0.27949
H         -0.54757        1.03962        1.11602
H          1.03773        0.95435        1.86203
H          0.58437        3.23140        1.09939
H          1.98458        2.55091        0.28787
H          0.66182        3.84103       -1.28196
H          0.67070        2.16126       -1.77429
H         -1.67361        1.84649       -0.88646
H         -1.50391        4.87301       -1.38865
H         -3.86184        2.86995       -1.07915
H         -3.75188        5.89792       -1.69833
H         -5.96090        3.27745       -0.47885
H         -7.32717        4.23288       -1.01887
H         -5.54205        2.63856       -2.92663
H         -7.17931        2.19509       -2.40422
H         -6.90372        3.64658       -3.39587

--Link1--
%chk=JID_1891.chk
%mem=8GB
%nprocshared=4
# B3LYP/6-311++G(d,p) empiricaldispersion=gd3bj scf=xqc pop=npa geom=check

CID_53818685_JID_1891_Energie_neutraal

0 1

--Link1--
%chk=JID_1891.chk
%mem=8GB
%nprocshared=4
# B3LYP/6-311++G(d,p) empiricaldispersion=gd3bj scf=xqc pop=npa geom=check

CID_53818685_JID_1891_Energie_kation

1 2

--Link1--
%chk=JID_1891.chk
%mem=8GB
%nprocshared=4
# B3LYP/6-311++G(d,p) empiricaldispersion=gd3bj scf=xqc pop=npa geom=check

CID_53818685_JID_1891_Energie_anion

-1 2
