%chk=JID_9206.chk
%mem=8GB
%nprocshared=4
# opt freq B3LYP/6-31G(d) empiricaldispersion=gd3bj scf=xqc

CID_80452164_JID_9206_neutraal

0 1
C          0.92739       -0.06330       -0.02684
C          0.41699        1.04713       -0.93419
C          1.37306        1.38153       -2.09568
C          1.55456        0.20217       -3.05817
C          0.89091        2.60822       -2.83240
C          1.40879        3.88700       -2.77340
S          0.50004        4.91585       -3.79154
C         -0.53882        3.59964       -4.26886
N         -0.20651        2.47664       -3.66484
N         -1.58358        3.75020       -5.15279
C         -1.66130        4.92786       -6.03826
C         -0.75623        4.78511       -7.27095
O         -1.39748        3.97111       -8.26054
C         -0.53747        3.71135       -9.36126
C         -2.38741        2.58101       -5.59958
C         -1.78654        1.25672       -5.97929
C         -2.70009        1.35790       -4.78655
C          2.55581        4.41860       -1.99130
O          3.71926        4.32455       -2.80357
H          0.96877       -1.02278       -0.55033
H          0.25734       -0.18410        0.83054
H          1.92656        0.16872        0.35490
H         -0.57051        0.76789       -1.32323
H          0.26419        1.94536       -0.32165
H          2.36158        1.60090       -1.67223
H          0.59300       -0.15038       -3.44797
H          2.17464        0.48990       -3.91496
H          2.04905       -0.64040       -2.56513
H         -2.70086        5.06600       -6.36208
H         -1.40712        5.84349       -5.49373
H         -0.59203        5.77698       -7.70746
H          0.21496        4.35352       -7.00397
H         -0.23180        4.64728       -9.83866
H          0.34255        3.14908       -9.03447
H         -1.08463        3.10855      -10.09093
H         -3.21960        2.90618       -6.22565
H         -2.16225        0.77736       -6.87488
H         -0.73225        1.08959       -5.79924
H         -2.27393        1.24883       -3.79849
H         -3.69482        0.93676       -4.87424
H          2.41391        5.46683       -1.71007
H          2.72163        3.84802       -1.07258
H          3.75245        3.42181       -3.16271

--Link1--
%chk=JID_9206.chk
%mem=8GB
%nprocshared=4
# B3LYP/6-311++G(d,p) empiricaldispersion=gd3bj scf=xqc pop=npa geom=check

CID_80452164_JID_9206_Energie_neutraal

0 1

--Link1--
%chk=JID_9206.chk
%mem=8GB
%nprocshared=4
# B3LYP/6-311++G(d,p) empiricaldispersion=gd3bj scf=xqc pop=npa geom=check

CID_80452164_JID_9206_Energie_kation

1 2

--Link1--
%chk=JID_9206.chk
%mem=8GB
%nprocshared=4
# B3LYP/6-311++G(d,p) empiricaldispersion=gd3bj scf=xqc pop=npa geom=check

CID_80452164_JID_9206_Energie_anion

-1 2
