%chk=JID_8465.chk
%mem=8GB
%nprocshared=4
# opt freq B3LYP/6-31G(d) empiricaldispersion=gd3bj scf=xqc

CID_58563803_JID_8465_neutraal

0 1
C          0.92396       -0.03078       -0.05719
C          1.12219        0.33946       -1.53694
C          2.00431       -0.76803       -2.16901
C         -0.24454        0.27781       -2.24911
C          1.81229        1.73965       -1.77235
C          3.15822        1.93258       -1.03897
C          3.86337        3.20015       -1.52849
C          2.94307        4.41389       -1.46400
C          1.60228        4.14146       -2.15134
N          0.94802        2.94094       -1.63025
C          0.28665        3.17587       -0.42552
O          0.81884        2.98177        0.66756
C         -1.19273        3.60512       -0.51606
C         -1.49662        4.77444        0.43200
C         -1.30033        6.13736       -0.22077
C         -2.14699        6.26578       -1.47900
C         -1.81497        5.18073       -2.49289
C         -1.84543        3.77346       -1.89859
H          0.56206       -1.06178        0.04007
H          0.17763        0.60125        0.42957
H          1.85746        0.03478        0.50978
H          1.50889       -1.74513       -2.12029
H          2.20915       -0.55884       -3.22495
H          2.96280       -0.87285       -1.65154
H         -0.98406        0.91755       -1.76148
H         -0.16072        0.58696       -3.29680
H         -0.65320       -0.73949       -2.23600
H          2.05275        1.73886       -2.84753
H          3.82686        1.08404       -1.21198
H          3.01141        2.00340        0.04357
H          4.76226        3.38107       -0.92859
H          4.19518        3.05240       -2.56366
H          2.77279        4.67853       -0.41315
H          3.43043        5.27577       -1.93325
H          0.96746        5.01299       -1.98985
H          1.73581        4.01476       -3.23161
H         -1.69257        2.72550       -0.07832
H         -2.54179        4.69522        0.75961
H         -0.88695        4.72137        1.34112
H         -0.24229        6.29179       -0.45958
H         -1.58245        6.92419        0.48831
H         -1.99071        7.25158       -1.93181
H         -3.20955        6.20380       -1.21337
H         -0.83741        5.38355       -2.93686
H         -2.52925        5.23353       -3.32372
H         -1.43337        3.06950       -2.62876
H         -2.90416        3.49811       -1.79123

--Link1--
%chk=JID_8465.chk
%mem=8GB
%nprocshared=4
# B3LYP/6-311++G(d,p) empiricaldispersion=gd3bj scf=xqc pop=npa geom=check

CID_58563803_JID_8465_Energie_neutraal

0 1

--Link1--
%chk=JID_8465.chk
%mem=8GB
%nprocshared=4
# B3LYP/6-311++G(d,p) empiricaldispersion=gd3bj scf=xqc pop=npa geom=check

CID_58563803_JID_8465_Energie_kation

1 2

--Link1--
%chk=JID_8465.chk
%mem=8GB
%nprocshared=4
# B3LYP/6-311++G(d,p) empiricaldispersion=gd3bj scf=xqc pop=npa geom=check

CID_58563803_JID_8465_Energie_anion

-1 2
