%chk=JID_10178.chk
%mem=8GB
%nprocshared=4
# opt freq B3LYP/6-31G(d) empiricaldispersion=gd3bj scf=xqc

CID_17424910_JID_10178_neutraal

0 1
C          2.54100        1.06400        0.00800
C          1.43660        0.14495       -0.42428
C          0.33278        0.64647       -1.12688
C         -0.71305       -0.19971       -1.51225
C         -0.63078       -1.56292       -1.20666
C          0.46649       -2.07504       -0.51255
C          1.48094       -1.21677       -0.09284
O          0.41820       -3.41091       -0.23345
C          1.63163       -4.14893       -0.40883
C          1.77926       -4.67892       -1.84405
N          2.28307       -3.68507       -2.80168
C          3.66809       -3.25968       -2.64511
C          1.39957       -3.13696       -3.72944
O          0.27955       -3.61578       -3.93020
C          1.87977       -1.96470       -4.59804
N          2.36300       -0.84203       -3.81109
C          3.40796       -0.02789       -4.05365
O          3.80297        0.78703       -3.23051
N          4.02501       -0.17104       -5.24392
C         -1.87610        0.33162       -2.29525
H          2.59897        1.94417       -0.64085
H          2.36998        1.39624        1.03648
H          3.50980        0.55633       -0.04668
H          0.28967        1.70571       -1.37550
H         -1.42148       -2.24282       -1.51846
H          2.30834       -1.58373        0.50565
H          2.52315       -3.61234       -0.07186
H          1.53763       -5.01684        0.25460
H          2.49026       -5.51324       -1.85305
H          0.81471       -5.07135       -2.18281
H          4.08503       -2.91171       -3.59181
H          3.71559       -2.45901       -1.90280
H          4.27349       -4.10510       -2.30466
H          2.64071       -2.32610       -5.29550
H          1.02896       -1.59292       -5.17858
H          1.90545       -0.67378       -2.92148
H          3.43228       -0.33716       -6.04333
H          4.73740        0.53164       -5.40028
H         -2.07730        1.37629       -2.03567
H         -1.66564        0.26716       -3.36718
H         -2.78605       -0.23740       -2.07740

--Link1--
%chk=JID_10178.chk
%mem=8GB
%nprocshared=4
# B3LYP/6-311++G(d,p) empiricaldispersion=gd3bj scf=xqc pop=npa geom=check

CID_17424910_JID_10178_Energie_neutraal

0 1

--Link1--
%chk=JID_10178.chk
%mem=8GB
%nprocshared=4
# B3LYP/6-311++G(d,p) empiricaldispersion=gd3bj scf=xqc pop=npa geom=check

CID_17424910_JID_10178_Energie_kation

1 2

--Link1--
%chk=JID_10178.chk
%mem=8GB
%nprocshared=4
# B3LYP/6-311++G(d,p) empiricaldispersion=gd3bj scf=xqc pop=npa geom=check

CID_17424910_JID_10178_Energie_anion

-1 2
