%chk=JID_7504.chk
%mem=8GB
%nprocshared=4
# opt freq B3LYP/6-31G(d) empiricaldispersion=gd3bj scf=xqc

CID_108409959_JID_7504_neutraal

0 1
C         -1.77500        1.87900       -0.01600
C         -0.73198        0.79507        0.00971
C          0.61840        1.13880       -0.16760
C          1.63597        0.17043       -0.14330
C          1.29023       -1.17404        0.08074
C         -0.05939       -1.51770        0.26625
C         -1.07490       -0.54885        0.23836
C         -2.50348       -0.97379        0.43929
C          2.29735       -2.23504        0.13037
C          3.14182       -2.65022        1.15408
N          3.98170       -3.71724        0.80146
C          3.75556       -4.07871       -0.43920
S          2.55184       -3.19960       -1.27330
C          3.18712       -2.06355        2.49317
O          2.49772       -1.14278        2.91094
O          4.10122       -2.62588        3.32112
C          3.06391        0.60738       -0.32840
H         -2.19913        2.01754        0.98344
H         -1.35149        2.83659       -0.33727
H         -2.57414        1.62759       -0.72049
H          0.88329        2.18326       -0.32624
H         -0.32235       -2.55992        0.44169
H         -2.96339       -0.40207        1.25155
H         -3.07487       -0.82423       -0.48223
H         -2.57414       -2.03326        0.70778
H          4.29705       -4.88802       -0.91167
H          3.99287       -2.12198        4.15110
H          3.12457        1.65805       -0.63216
H          3.61861        0.49937        0.60870
H          3.55160        0.02038       -1.11292

--Link1--
%chk=JID_7504.chk
%mem=8GB
%nprocshared=4
# B3LYP/6-311++G(d,p) empiricaldispersion=gd3bj scf=xqc pop=npa geom=check

CID_108409959_JID_7504_Energie_neutraal

0 1

--Link1--
%chk=JID_7504.chk
%mem=8GB
%nprocshared=4
# B3LYP/6-311++G(d,p) empiricaldispersion=gd3bj scf=xqc pop=npa geom=check

CID_108409959_JID_7504_Energie_kation

1 2

--Link1--
%chk=JID_7504.chk
%mem=8GB
%nprocshared=4
# B3LYP/6-311++G(d,p) empiricaldispersion=gd3bj scf=xqc pop=npa geom=check

CID_108409959_JID_7504_Energie_anion

-1 2
