%chk=JID_9078.chk
%mem=8GB
%nprocshared=4
# opt freq B3LYP/6-31G(d) empiricaldispersion=gd3bj scf=xqc

CID_55195197_JID_9078_neutraal

0 1
C          0.93466       -0.02623        0.07101
C          0.17747       -0.94593        1.02533
C          0.86661       -1.41643        2.29617
C          0.59080       -2.69379        2.80059
N          1.13092       -3.17855        3.94515
C          1.96812       -2.43059        4.67864
C          2.31120       -1.12161        4.27938
C          1.74083       -0.61758        3.06419
N          1.96127        0.73854        2.67816
C          0.99258        1.64692        3.30152
C          1.29395        3.07102        2.86209
C          3.18570       -0.37359        5.10840
C          3.70002       -0.89302        6.29107
C          3.35161       -2.17631        6.67579
C          2.49363       -2.95431        5.87678
C          2.10399       -4.35760        6.34382
C          3.32437       -5.23510        6.64468
C          1.17460       -4.28583        7.55926
C         -0.33645       -3.65527        2.11021
H          0.94825        1.00885        0.41934
H          0.43534       -0.01473       -0.90432
H          1.96452       -0.36445       -0.08147
H         -0.77082       -0.47224        1.30648
H         -0.08240       -1.82025        0.41814
H          2.91396        1.01006        2.90769
H         -0.02816        1.38808        2.99754
H          1.04683        1.59118        4.39478
H          1.23771        3.16739        1.77275
H          0.57623        3.76742        3.30584
H          2.30043        3.37200        3.17210
H          3.47274        0.63992        4.84535
H          4.36251       -0.29528        6.91117
H          3.74471       -2.56775        7.61089
H          1.55338       -4.87427        5.54910
H          3.89501       -4.87250        7.50603
H          3.01078       -6.26057        6.86957
H          4.00082       -5.27253        5.78379
H          0.28356       -3.68840        7.33600
H          0.84151       -5.28793        7.85033
H          1.66965       -3.83457        8.42625
H          0.09579       -3.98572        1.16070
H         -0.50089       -4.54635        2.72632
H         -1.31356       -3.19495        1.93505

--Link1--
%chk=JID_9078.chk
%mem=8GB
%nprocshared=4
# B3LYP/6-311++G(d,p) empiricaldispersion=gd3bj scf=xqc pop=npa geom=check

CID_55195197_JID_9078_Energie_neutraal

0 1

--Link1--
%chk=JID_9078.chk
%mem=8GB
%nprocshared=4
# B3LYP/6-311++G(d,p) empiricaldispersion=gd3bj scf=xqc pop=npa geom=check

CID_55195197_JID_9078_Energie_kation

1 2

--Link1--
%chk=JID_9078.chk
%mem=8GB
%nprocshared=4
# B3LYP/6-311++G(d,p) empiricaldispersion=gd3bj scf=xqc pop=npa geom=check

CID_55195197_JID_9078_Energie_anion

-1 2
