%chk=JID_8754.chk
%mem=8GB
%nprocshared=4
# opt freq B3LYP/6-31G(d) empiricaldispersion=gd3bj scf=xqc

CID_143641731_JID_8754_neutraal

0 1
C          0.94712        0.04045       -0.07462
C          0.77757        0.43943        2.05834
C         -2.28225        0.67008        0.61849
C         -0.81795        0.47560        0.81526
N         -0.21840       -1.14056        1.16076
C          1.52506       -1.35636        1.34373
C          2.67034       -0.00584        1.18183
C          1.97984        1.60310        0.82484
N          0.25082        1.85962        0.64122
N          2.90560        2.68771        0.72427
C          2.68113        3.30047       -0.61015
C          3.77002        4.32013       -0.97065
O          3.92248        5.36654       -0.00298
C          4.68442        4.93695        1.12578
C          3.80646        4.42549        2.28405
C          2.56560        3.63762        1.80827
C          3.30523        5.62910        3.10974
C          4.67426        3.54109        3.20046
H          0.97415        0.87959       -0.83171
H          0.16110       -0.56262       -0.62679
H          1.81195       -0.53611       -0.52007
H          1.65582        0.76744        2.68869
H          0.08812        1.24731        2.45522
H          0.42652       -0.35962        2.77971
H         -2.56631        0.33588       -0.38239
H         -2.83694        0.09121        1.36108
H         -2.53895        1.72668        0.72866
H          1.80846       -2.38046        1.55972
H          3.73707       -0.14011        1.29957
H          2.69442        2.52631       -1.38921
H          1.70169        3.79578       -0.65438
H          3.49101        4.80226       -1.91414
H          4.73139        3.82292       -1.14898
H          5.26722        5.80448        1.45892
H          5.42788        4.18781        0.82405
H          1.77675        4.32955        1.47957
H          2.14865        3.11462        2.68146
H          2.67532        5.30030        3.94443
H          4.14089        6.19849        3.53220
H          2.71314        6.31456        2.49313
H          5.04060        2.65638        2.66765
H          5.54675        4.09206        3.56970
H          4.10817        3.19289        4.07160

--Link1--
%chk=JID_8754.chk
%mem=8GB
%nprocshared=4
# B3LYP/6-311++G(d,p) empiricaldispersion=gd3bj scf=xqc pop=npa geom=check

CID_143641731_JID_8754_Energie_neutraal

0 1

--Link1--
%chk=JID_8754.chk
%mem=8GB
%nprocshared=4
# B3LYP/6-311++G(d,p) empiricaldispersion=gd3bj scf=xqc pop=npa geom=check

CID_143641731_JID_8754_Energie_kation

1 2

--Link1--
%chk=JID_8754.chk
%mem=8GB
%nprocshared=4
# B3LYP/6-311++G(d,p) empiricaldispersion=gd3bj scf=xqc pop=npa geom=check

CID_143641731_JID_8754_Energie_anion

-1 2
