%chk=JID_10081.chk
%mem=8GB
%nprocshared=4
# opt freq B3LYP/6-31G(d) empiricaldispersion=gd3bj scf=xqc

CID_65593034_JID_10081_neutraal

0 1
C          0.94817       -0.05967       -0.06126
C         -0.24943       -0.38010        0.82205
C          0.08927       -1.34632        1.96496
N          1.01695       -0.84278        3.00155
C          1.55405       -1.97611        3.78116
C          3.06246       -2.13934        3.70108
C          3.62707       -3.34946        4.14652
C          5.01473       -3.56531        4.13070
C          5.84853       -2.55040        3.65010
C          5.30622       -1.34285        3.21084
C          3.92459       -1.13964        3.23779
C          5.59398       -4.89055        4.56485
O          4.96062       -5.40380        5.73885
C          5.45570       -4.80544        6.93006
C          0.45324        0.30638        3.76876
C          0.58045        0.27784        5.31026
C          0.03283        1.55885        5.94154
C          0.68452        2.80007        5.34556
N          0.51191        2.83286        3.89644
C          1.09197        1.63639        3.26789
H          0.65421        0.63106       -0.85784
H          1.33746       -0.96874       -0.53128
H          1.76210        0.40197        0.50430
H         -0.69713        0.54314        1.20253
H         -1.01785       -0.84965        0.19510
H         -0.84330       -1.67894        2.43981
H          0.52611       -2.23482        1.48814
H          1.27946       -1.95890        4.83769
H          1.12159       -2.92026        3.41970
H          2.97663       -4.14294        4.51374
H          6.92596       -2.69220        3.61022
H          5.95901       -0.55763        2.83906
H          3.52882       -0.19425        2.87909
H          5.42371       -5.61408        3.75956
H          6.67783       -4.82943        4.72138
H          6.52514       -5.00753        7.04387
H          5.27277       -3.72704        6.93469
H          4.92819       -5.24896        7.77897
H         -0.62668        0.36216        3.56949
H          0.01650       -0.56490        5.72635
H          1.63156        0.16493        5.60472
H         -1.05365        1.60321        5.79266
H          0.20465        1.53639        7.02375
H          0.22200        3.69363        5.77864
H          1.75026        2.83334        5.60244
H          0.97601        3.65947        3.52067
H          2.17515        1.62707        3.44113
H          0.94981        1.74617        2.19057

--Link1--
%chk=JID_10081.chk
%mem=8GB
%nprocshared=4
# B3LYP/6-311++G(d,p) empiricaldispersion=gd3bj scf=xqc pop=npa geom=check

CID_65593034_JID_10081_Energie_neutraal

0 1

--Link1--
%chk=JID_10081.chk
%mem=8GB
%nprocshared=4
# B3LYP/6-311++G(d,p) empiricaldispersion=gd3bj scf=xqc pop=npa geom=check

CID_65593034_JID_10081_Energie_kation

1 2

--Link1--
%chk=JID_10081.chk
%mem=8GB
%nprocshared=4
# B3LYP/6-311++G(d,p) empiricaldispersion=gd3bj scf=xqc pop=npa geom=check

CID_65593034_JID_10081_Energie_anion

-1 2
