%chk=JID_5632.chk
%mem=8GB
%nprocshared=4
# opt freq B3LYP/6-31G(d) empiricaldispersion=gd3bj scf=xqc

CID_104256855_JID_5632_neutraal

0 1
C          1.03055       -0.08223        0.04801
C          0.58007       -0.04378        1.50707
C         -0.21338        1.22826        1.85554
C         -1.57923        1.39442        1.18192
C         -2.68045        0.67884        1.93996
O         -2.97810        1.05714        3.08070
N         -3.39321       -0.35285        1.42329
C         -3.36339       -1.00555        0.19044
C         -4.28050       -2.05026        0.01297
C         -4.30872       -2.74521       -1.19121
C         -3.41873       -2.37836       -2.19329
C         -2.53746       -1.34112       -1.93813
N         -2.48776       -0.66122       -0.76986
O         -5.13846       -2.37895        1.02944
N         -0.15692       -1.26157        1.83371
H          0.19077       -0.15206       -0.64793
H          1.68302       -0.94380       -0.13412
H          1.59975        0.81916       -0.20343
H          1.48453       -0.03396        2.12819
H         -0.33170        1.27933        2.94599
H          0.40420        2.09408        1.58137
H         -1.85251        2.45815        1.22510
H         -1.53646        1.16953        0.12141
H         -4.08758       -0.71315        2.06854
H         -5.00707       -3.55714       -1.36374
H         -3.41028       -2.88699       -3.15127
H         -1.82346       -1.01633       -2.69070
H         -5.67866       -3.13882        0.75410
H          0.44202       -2.07167        1.68121
H         -0.92925       -1.37066        1.17342

--Link1--
%chk=JID_5632.chk
%mem=8GB
%nprocshared=4
# B3LYP/6-311++G(d,p) empiricaldispersion=gd3bj scf=xqc pop=npa geom=check

CID_104256855_JID_5632_Energie_neutraal

0 1

--Link1--
%chk=JID_5632.chk
%mem=8GB
%nprocshared=4
# B3LYP/6-311++G(d,p) empiricaldispersion=gd3bj scf=xqc pop=npa geom=check

CID_104256855_JID_5632_Energie_kation

1 2

--Link1--
%chk=JID_5632.chk
%mem=8GB
%nprocshared=4
# B3LYP/6-311++G(d,p) empiricaldispersion=gd3bj scf=xqc pop=npa geom=check

CID_104256855_JID_5632_Energie_anion

-1 2
