%chk=JID_8470.chk
%mem=8GB
%nprocshared=4
# opt freq B3LYP/6-31G(d) empiricaldispersion=gd3bj scf=xqc

CID_68832000_JID_8470_neutraal

0 1
C          1.01362        0.06727       -0.07272
C          1.32555       -0.40362       -1.48283
O          2.39840        0.34649       -2.05207
C          1.99804        1.60188       -2.60261
C          1.49207        1.45283       -4.03998
O          1.00720        2.70260       -4.55146
C         -0.28142        2.95940       -4.16674
C         -0.50693        4.08891       -3.38169
C         -1.80305        4.40432       -2.94594
C         -2.88488        3.58199       -3.33462
C         -2.64198        2.47446       -4.16419
C         -1.34667        2.16820       -4.58528
C         -4.18178        3.89403       -2.88931
C         -4.42010        4.99671       -2.05717
C         -3.34399        5.81368       -1.69723
C         -2.04861        5.51928       -2.13219
C         -5.76804        5.35667       -1.59767
C         -6.71677        4.47120       -1.26671
H          1.91856        0.06087        0.54360
H          0.26503       -0.58067        0.39250
H          0.63014        1.09171       -0.06705
H          1.65433       -1.44725       -1.44217
H          0.43348       -0.36594       -2.11663
H          1.26309        2.09672       -1.96005
H          2.87877        2.25424       -2.60763
H          2.33083        1.14758       -4.67714
H          0.75587        0.64655       -4.13410
H          0.33740        4.71257       -3.09901
H         -3.46452        1.84279       -4.49246
H         -1.18265        1.32124       -5.24471
H         -5.01579        3.27116       -3.20538
H         -3.50043        6.68423       -1.06399
H         -1.23161        6.16939       -1.82692
H         -5.97742        6.42025       -1.50732
H         -7.68876        4.81194       -0.92346
H         -6.55522        3.39906       -1.30766

--Link1--
%chk=JID_8470.chk
%mem=8GB
%nprocshared=4
# B3LYP/6-311++G(d,p) empiricaldispersion=gd3bj scf=xqc pop=npa geom=check

CID_68832000_JID_8470_Energie_neutraal

0 1

--Link1--
%chk=JID_8470.chk
%mem=8GB
%nprocshared=4
# B3LYP/6-311++G(d,p) empiricaldispersion=gd3bj scf=xqc pop=npa geom=check

CID_68832000_JID_8470_Energie_kation

1 2

--Link1--
%chk=JID_8470.chk
%mem=8GB
%nprocshared=4
# B3LYP/6-311++G(d,p) empiricaldispersion=gd3bj scf=xqc pop=npa geom=check

CID_68832000_JID_8470_Energie_anion

-1 2
