%chk=JID_2989.chk
%mem=8GB
%nprocshared=4
# opt freq B3LYP/6-31G(d) empiricaldispersion=gd3bj scf=xqc

CID_130932730_JID_2989_neutraal

0 1
C          0.92391       -0.06033        0.02389
C          0.22407        0.63746       -1.15268
C          0.33384       -0.21916       -2.45148
N         -0.20219       -1.58145       -2.35312
N         -1.15742        1.11340       -0.98769
C         -2.10391        0.15604       -0.37156
C         -2.75589        1.37086        0.32514
C         -1.37524        2.04205        0.14082
C         -3.42583        1.31547        1.69655
O         -4.51167        1.87961        1.91077
N         -2.89347        0.65705        2.77729
C         -1.71411       -0.15934        2.88966
H          0.42823       -0.98568        0.32916
H          0.99636        0.59445        0.89638
H          1.95124       -0.32240       -0.25524
H          0.81737        1.53956       -1.35970
H         -0.17651        0.29946       -3.27258
H          1.38939       -0.28733       -2.74255
H         -0.15904       -2.01853       -3.27287
H          0.39183       -2.14029       -1.74424
H         -2.75391       -0.35568       -1.08906
H         -1.68015       -0.59853        0.29074
H         -3.48219        1.83135       -0.37154
H         -0.69670        1.95729        0.99259
H         -1.41631        3.09670       -0.15088
H         -3.51574        0.69164        3.57739
H         -1.47002       -0.26161        3.95016
H         -1.92629       -1.14627        2.47314
H         -0.87491        0.29919        2.37239

--Link1--
%chk=JID_2989.chk
%mem=8GB
%nprocshared=4
# B3LYP/6-311++G(d,p) empiricaldispersion=gd3bj scf=xqc pop=npa geom=check

CID_130932730_JID_2989_Energie_neutraal

0 1

--Link1--
%chk=JID_2989.chk
%mem=8GB
%nprocshared=4
# B3LYP/6-311++G(d,p) empiricaldispersion=gd3bj scf=xqc pop=npa geom=check

CID_130932730_JID_2989_Energie_kation

1 2

--Link1--
%chk=JID_2989.chk
%mem=8GB
%nprocshared=4
# B3LYP/6-311++G(d,p) empiricaldispersion=gd3bj scf=xqc pop=npa geom=check

CID_130932730_JID_2989_Energie_anion

-1 2
