%chk=JID_3907.chk
%mem=8GB
%nprocshared=4
# opt freq B3LYP/6-31G(d) empiricaldispersion=gd3bj scf=xqc

CID_130603779_JID_3907_neutraal

0 1
C          1.05551        0.05929        0.05834
C          0.51782        0.54217       -1.24496
C          1.08110        1.78427       -1.88496
C          1.29145        0.43989       -2.54816
C          2.67646       -0.16695       -2.64645
C          2.66703       -1.66304       -2.81343
N          2.07350       -2.27835       -3.85564
N          2.32262       -3.57405       -3.58086
N          3.01601       -3.85924       -2.46161
C          3.24667       -2.63587       -1.97657
C          1.87130       -4.62605       -4.45678
N          3.31325        0.45971       -3.83763
N          4.76814        0.41402       -3.72929
H          0.98062       -1.03090        0.11661
H          0.47104        0.48259        0.88153
H          2.10070        0.34204        0.21507
H         -0.55482        0.38513       -1.30536
H          0.38973        2.47270       -2.35850
H          1.93565        2.27042       -1.42790
H          0.70299        0.23107       -3.43827
H          3.25081        0.09847       -1.74990
H          3.80926       -2.51029       -1.06239
H          2.74921       -5.10316       -4.89868
H          1.29818       -5.34532       -3.86674
H          1.23983       -4.20098       -5.24093
H          2.97790       -0.09219       -4.64017
H          5.19632        0.66968       -4.62469
H          5.09547        1.13228       -3.07571

--Link1--
%chk=JID_3907.chk
%mem=8GB
%nprocshared=4
# B3LYP/6-311++G(d,p) empiricaldispersion=gd3bj scf=xqc pop=npa geom=check

CID_130603779_JID_3907_Energie_neutraal

0 1

--Link1--
%chk=JID_3907.chk
%mem=8GB
%nprocshared=4
# B3LYP/6-311++G(d,p) empiricaldispersion=gd3bj scf=xqc pop=npa geom=check

CID_130603779_JID_3907_Energie_kation

1 2

--Link1--
%chk=JID_3907.chk
%mem=8GB
%nprocshared=4
# B3LYP/6-311++G(d,p) empiricaldispersion=gd3bj scf=xqc pop=npa geom=check

CID_130603779_JID_3907_Energie_anion

-1 2
