%chk=JID_9322.chk
%mem=8GB
%nprocshared=4
# opt freq B3LYP/6-31G(d) empiricaldispersion=gd3bj scf=xqc

CID_103294535_JID_9322_neutraal

0 1
C         -0.02900        0.88300        0.00000
C          0.94181        0.70173        1.11746
C          1.43884        1.09362       -0.26130
C          2.38393        0.09153       -0.92475
C          3.75308        0.31278       -1.00822
C          4.27521       -0.95445       -1.34007
N          3.33251       -1.87948       -1.49841
N          2.16264       -1.18159       -1.43767
C          0.99105       -1.73860       -2.02611
N          0.87426       -3.08806       -2.08175
N         -0.21889       -3.66188       -2.67622
C         -1.15544       -2.87607       -3.23767
C         -1.05743       -1.49953       -3.24107
C          0.04647       -0.91531       -2.62756
C          4.54555        1.52928       -0.67653
N          4.28830        2.53525       -1.70656
C          5.01362        3.78313       -1.45851
C          6.40346        3.96752       -1.99861
C          5.25642        4.72237       -2.60639
H         -0.66269        1.76412        0.01833
H         -0.56111       -0.01230       -0.28780
H          0.97031        1.45432        1.89757
H          1.12336       -0.30601        1.47581
H          1.80372        2.11995       -0.28967
H          5.31256       -1.25023       -1.43684
H         -1.98765       -3.39604       -3.69748
H         -1.81561       -0.89238       -3.72266
H          0.16804        0.16203       -2.66411
H          4.25447        1.90257        0.31235
H          5.61446        1.28706       -0.63902
H          4.52892        2.14206       -2.61600
H          4.78691        4.25832       -0.50514
H          7.11113        4.52240       -1.39313
H          6.85136        3.17207       -2.58212
H          4.92153        4.43454       -3.59588
H          5.18519        5.78619       -2.41039

--Link1--
%chk=JID_9322.chk
%mem=8GB
%nprocshared=4
# B3LYP/6-311++G(d,p) empiricaldispersion=gd3bj scf=xqc pop=npa geom=check

CID_103294535_JID_9322_Energie_neutraal

0 1

--Link1--
%chk=JID_9322.chk
%mem=8GB
%nprocshared=4
# B3LYP/6-311++G(d,p) empiricaldispersion=gd3bj scf=xqc pop=npa geom=check

CID_103294535_JID_9322_Energie_kation

1 2

--Link1--
%chk=JID_9322.chk
%mem=8GB
%nprocshared=4
# B3LYP/6-311++G(d,p) empiricaldispersion=gd3bj scf=xqc pop=npa geom=check

CID_103294535_JID_9322_Energie_anion

-1 2
