%chk=JID_9707.chk
%mem=8GB
%nprocshared=4
# opt freq B3LYP/6-31G(d) empiricaldispersion=gd3bj scf=xqc

CID_106907063_JID_9707_neutraal

0 1
C          1.06298        0.05757       -0.05215
C          0.03259       -0.10681        1.08004
C         -0.92971        1.09932        1.02947
C         -0.77865       -1.38818        0.82493
N          0.54118       -0.19715        2.46348
C          1.95707       -0.54571        2.65499
C          2.84316        0.67118        2.89774
N          2.32557        1.89723        2.61263
C          3.08834        2.99643        2.84378
C          4.35975        2.90554        3.40106
C          4.87833        1.64703        3.69470
C          4.11699        0.51298        3.43152
C          2.49324        4.34354        2.46340
N          2.74397        4.74564        1.06928
C          1.72638        5.66122        0.57387
C          4.11654        5.16870        0.75981
C          4.57599        6.60766        1.07630
S          4.94426        6.93072        2.83490
C          3.61328        8.09955        3.20573
H          0.55944        0.20144       -1.01594
H          1.70172       -0.82463       -0.16298
H          1.70344        0.93105        0.10552
H         -1.42465        1.17370        0.05467
H         -1.71550        1.02026        1.79045
H         -0.39363        2.04097        1.20065
H         -0.13982       -2.27828        0.85493
H         -1.57033       -1.51878        1.57273
H         -1.26278       -1.35857       -0.15830
H          0.45047        0.72973        2.89496
H          2.00008       -1.15449        3.56673
H          2.36767       -1.16931        1.85569
H          4.94638        3.79653        3.59760
H          5.87075        1.55467        4.12617
H          4.50756       -0.47364        3.65978
H          1.40953        4.23097        2.61064
H          2.79346        5.10847        3.18412
H          1.68004        6.58943        1.15111
H          1.90747        5.91488       -0.47677
H          0.73708        5.19107        0.60898
H          4.84469        4.45365        1.15885
H          4.21920        5.05575       -0.32893
H          5.51850        6.77807        0.54279
H          3.87378        7.34933        0.68326
H          2.63679        7.62809        3.07608
H          3.70197        8.42483        4.24573
H          3.68758        8.97941        2.56135

--Link1--
%chk=JID_9707.chk
%mem=8GB
%nprocshared=4
# B3LYP/6-311++G(d,p) empiricaldispersion=gd3bj scf=xqc pop=npa geom=check

CID_106907063_JID_9707_Energie_neutraal

0 1

--Link1--
%chk=JID_9707.chk
%mem=8GB
%nprocshared=4
# B3LYP/6-311++G(d,p) empiricaldispersion=gd3bj scf=xqc pop=npa geom=check

CID_106907063_JID_9707_Energie_kation

1 2

--Link1--
%chk=JID_9707.chk
%mem=8GB
%nprocshared=4
# B3LYP/6-311++G(d,p) empiricaldispersion=gd3bj scf=xqc pop=npa geom=check

CID_106907063_JID_9707_Energie_anion

-1 2
