%chk=JID_6829.chk
%mem=8GB
%nprocshared=4
# opt freq B3LYP/6-31G(d) empiricaldispersion=gd3bj scf=xqc

CID_103543959_JID_6829_neutraal

0 1
C          0.98772       -0.06750       -0.07275
C          0.31153       -1.26983        0.57008
C          0.59858       -1.35184        2.03995
C          0.02731       -0.61835        3.05968
C          0.54420       -0.97542        4.33688
C          1.48513       -1.98283        4.26050
S          1.75668       -2.46027        2.63977
C          2.24635       -2.61997        5.39211
C          1.36390       -3.55346        6.25107
C          0.89280       -4.83025        5.52491
C          1.99139       -5.72109        4.94358
O          2.91654       -6.12312        5.96678
C          3.16896       -7.49918        5.68840
C          1.85060       -7.98075        5.14966
O          1.39482       -6.88846        4.35247
N          2.06805       -3.88295        7.50377
H          0.64638        0.87006        0.37911
H          0.75802       -0.03105       -1.14236
H          2.07604       -0.11814        0.04008
H         -0.77271       -1.19587        0.42118
H          0.63344       -2.18412        0.05729
H         -0.72487        0.14412        2.89709
H          0.23709       -0.51694        5.26966
H          3.13620       -3.14664        5.02696
H          2.62656       -1.80503        6.02467
H          0.46372       -2.99928        6.54712
H          0.29439       -5.42723        6.22780
H          0.19403       -4.56329        4.72195
H          2.54870       -5.20608        4.15571
H          3.48755       -8.02533        6.59157
H          3.96117       -7.55646        4.93407
H          1.12273       -8.13892        5.95279
H          1.93196       -8.89109        4.55078
H          1.43803       -4.40745        8.11122
H          2.81596       -4.55224        7.28233

--Link1--
%chk=JID_6829.chk
%mem=8GB
%nprocshared=4
# B3LYP/6-311++G(d,p) empiricaldispersion=gd3bj scf=xqc pop=npa geom=check

CID_103543959_JID_6829_Energie_neutraal

0 1

--Link1--
%chk=JID_6829.chk
%mem=8GB
%nprocshared=4
# B3LYP/6-311++G(d,p) empiricaldispersion=gd3bj scf=xqc pop=npa geom=check

CID_103543959_JID_6829_Energie_kation

1 2

--Link1--
%chk=JID_6829.chk
%mem=8GB
%nprocshared=4
# B3LYP/6-311++G(d,p) empiricaldispersion=gd3bj scf=xqc pop=npa geom=check

CID_103543959_JID_6829_Energie_anion

-1 2
