%chk=JID_7855.chk
%mem=8GB
%nprocshared=4
# opt freq B3LYP/6-31G(d) empiricaldispersion=gd3bj scf=xqc

CID_123970897_JID_7855_neutraal

0 1
C          1.07442        0.03580       -0.05639
C          0.27694       -0.83970       -1.01512
C          0.58645       -2.36194       -0.96402
C          0.24867       -2.92165        0.43473
C         -0.33816       -3.06346       -1.97796
C          2.07320       -2.68790       -1.25869
C          2.59754       -2.16349       -2.58310
O          3.00381       -1.00557       -2.69443
N          2.60714       -2.94651       -3.69636
C          2.35924       -4.37206       -3.84907
C          1.30812       -4.66734       -4.90946
C          1.91260       -4.80536       -6.28918
O          2.15335       -5.92657       -6.74546
C          2.29307       -3.56316       -7.07175
C          1.11735       -2.63774       -7.37476
C          1.01335       -1.49270       -6.40574
C          1.39573       -0.24004       -6.68420
H          0.88362       -0.23098        0.98678
H          0.78209        1.08356       -0.18410
H          2.14968       -0.02842       -0.24107
H         -0.78909       -0.68343       -0.80179
H          0.43187       -0.46449       -2.03446
H         -0.77936       -2.67540        0.72336
H          0.34579       -4.01343        0.45524
H          0.91820       -2.52305        1.20402
H         -0.20234       -2.66372       -2.98744
H         -0.15308       -4.14244       -2.00759
H         -1.39254       -2.92018       -1.71388
H          2.71550       -2.25492       -0.48021
H          2.25207       -3.76406       -1.17980
H          3.03653       -2.45109       -4.47072
H          3.32050       -4.83337       -4.10048
H          2.03184       -4.79795       -2.90012
H          0.84263       -5.63526       -4.68206
H          0.49521       -3.93869       -4.92126
H          3.11787       -3.05371       -6.56447
H          2.69727       -3.91850       -8.02910
H          1.24607       -2.23465       -8.38777
H          0.16864       -3.18706       -7.38222
H          0.58432       -1.68987       -5.42576
H          1.29259        0.54794       -5.94256
H          1.82255        0.03264       -7.64449

--Link1--
%chk=JID_7855.chk
%mem=8GB
%nprocshared=4
# B3LYP/6-311++G(d,p) empiricaldispersion=gd3bj scf=xqc pop=npa geom=check

CID_123970897_JID_7855_Energie_neutraal

0 1

--Link1--
%chk=JID_7855.chk
%mem=8GB
%nprocshared=4
# B3LYP/6-311++G(d,p) empiricaldispersion=gd3bj scf=xqc pop=npa geom=check

CID_123970897_JID_7855_Energie_kation

1 2

--Link1--
%chk=JID_7855.chk
%mem=8GB
%nprocshared=4
# B3LYP/6-311++G(d,p) empiricaldispersion=gd3bj scf=xqc pop=npa geom=check

CID_123970897_JID_7855_Energie_anion

-1 2
