%chk=JID_8386.chk
%mem=8GB
%nprocshared=4
# opt freq B3LYP/6-31G(d) empiricaldispersion=gd3bj scf=xqc

CID_144023390_JID_8386_neutraal

0 1
C          1.06214       -0.02281       -0.07496
C          1.31715       -1.46353        0.30402
C          0.01856        0.82157        3.83473
C         -1.19500        0.69557        2.96308
C         -1.82309       -0.54104        2.79498
C         -2.93172       -0.66723        1.95129
C         -3.42065        0.43041        1.22865
C         -2.79060        1.66997        1.41507
C         -1.68441        1.80033        2.26087
C         -4.65063        0.31857        0.34773
N         -4.56049       -0.34368       -0.96064
C         -4.25463       -1.77324       -0.91237
C         -2.78536       -1.91069       -1.28942
C         -2.37256       -0.54275       -1.81609
C         -3.68721        0.21392       -2.01046
C         -3.51629        1.74443       -2.17678
C         -2.59638        2.09525       -3.34963
S         -5.12442        2.58388       -2.46889
H          1.81529        0.63155        0.37401
H          0.07992        0.29970        0.27252
H          1.10094        0.10200       -1.16117
H          1.27394       -1.58942        1.38988
H          0.56814       -2.11917       -0.14958
H          2.30624       -1.78076       -0.03995
H         -0.03387        0.12651        4.67931
H          0.92054        0.60534        3.25385
H          0.10015        1.83154        4.24992
H         -1.45930       -1.41752        3.32693
H         -3.41601       -1.63640        1.87668
H         -3.16803        2.55934        0.91501
H         -1.21279        2.77409        2.37111
H         -5.42453       -0.19491        0.93581
H         -5.07201        1.32081        0.20899
H         -4.86348       -2.27747       -1.67387
H         -4.50305       -2.26265        0.03382
H         -2.16585       -2.19354       -0.43269
H         -2.65698       -2.67964       -2.05925
H         -1.73136       -0.03679       -1.08956
H         -1.80761       -0.64117       -2.74894
H         -4.10889       -0.14837       -2.96182
H         -3.08172        2.18459       -1.27888
H         -2.95684        1.66661       -4.29163
H         -2.50624        3.18019       -3.47775
H         -1.58360        1.71560       -3.17801
H         -5.57761        1.72850       -3.39697

--Link1--
%chk=JID_8386.chk
%mem=8GB
%nprocshared=4
# B3LYP/6-311++G(d,p) empiricaldispersion=gd3bj scf=xqc pop=npa geom=check

CID_144023390_JID_8386_Energie_neutraal

0 1

--Link1--
%chk=JID_8386.chk
%mem=8GB
%nprocshared=4
# B3LYP/6-311++G(d,p) empiricaldispersion=gd3bj scf=xqc pop=npa geom=check

CID_144023390_JID_8386_Energie_kation

1 2

--Link1--
%chk=JID_8386.chk
%mem=8GB
%nprocshared=4
# B3LYP/6-311++G(d,p) empiricaldispersion=gd3bj scf=xqc pop=npa geom=check

CID_144023390_JID_8386_Energie_anion

-1 2
