%chk=JID_6458.chk
%mem=8GB
%nprocshared=4
# opt freq B3LYP/6-31G(d) empiricaldispersion=gd3bj scf=xqc

CID_62417087_JID_6458_neutraal

0 1
C          0.90690        0.02941       -0.02163
C          0.35720        1.42279       -0.28187
N          1.15792        2.04601       -1.32411
C          0.78138        3.43711       -1.61036
C          1.02705        4.49516       -0.48267
C          2.39083        4.30962        0.19857
N          0.72502        5.87731       -0.91417
C          0.68904        6.84907        0.17236
C          1.36310        6.39398       -2.13856
C          2.87372        6.71555       -2.13271
C          3.77743        5.63680       -2.68162
C          5.04344        5.43825       -2.13110
C          5.85370        4.42751       -2.64301
C          5.39257        3.65542       -3.70071
C          4.14187        3.94144       -4.21694
N          3.34002        4.92087       -3.74376
H          0.87008       -0.58865       -0.92533
H          0.31330       -0.47070        0.75058
H          1.94486        0.06814        0.32667
H         -0.68878        1.34820       -0.59869
H          0.39134        1.99040        0.65315
H          2.14891        2.00654       -1.09195
H          1.35424        3.70549       -2.49988
H         -0.27289        3.47242       -1.91453
H          0.27880        4.26828        0.28987
H          2.64436        5.13351        0.87062
H          2.38536        3.40700        0.82010
H          3.19661        4.19005       -0.52337
H          1.68131        7.09872        0.55869
H          0.21605        7.77994       -0.16047
H          0.08096        6.48049        1.00611
H          1.08790        5.77058       -2.99552
H          0.85357        7.34361       -2.35852
H          3.03764        7.60131       -2.76065
H          3.19658        6.99985       -1.12526
H          5.38997        6.04281       -1.29929
H          6.83424        4.24118       -2.21461
H          5.99261        2.85400       -4.11600
H          3.73379        3.37178       -5.04689

--Link1--
%chk=JID_6458.chk
%mem=8GB
%nprocshared=4
# B3LYP/6-311++G(d,p) empiricaldispersion=gd3bj scf=xqc pop=npa geom=check

CID_62417087_JID_6458_Energie_neutraal

0 1

--Link1--
%chk=JID_6458.chk
%mem=8GB
%nprocshared=4
# B3LYP/6-311++G(d,p) empiricaldispersion=gd3bj scf=xqc pop=npa geom=check

CID_62417087_JID_6458_Energie_kation

1 2

--Link1--
%chk=JID_6458.chk
%mem=8GB
%nprocshared=4
# B3LYP/6-311++G(d,p) empiricaldispersion=gd3bj scf=xqc pop=npa geom=check

CID_62417087_JID_6458_Energie_anion

-1 2
