%chk=JID_7650.chk
%mem=8GB
%nprocshared=4
# opt freq B3LYP/6-31G(d) empiricaldispersion=gd3bj scf=xqc

CID_143785193_JID_7650_neutraal

0 1
C          0.65700       -1.32600       -0.17700
C         -0.84992       -1.33346        0.13210
C         -1.51951        0.01192        0.12700
C         -0.85421        1.17375       -0.00440
C          0.58878        1.17088       -0.15713
C          1.29220        0.03303       -0.23487
C         -1.55463        2.50989        0.01151
O         -1.09206        3.28732        1.12649
C         -1.75849        3.06162        2.28971
O         -2.73417        2.34999        2.47265
N         -1.15194        3.78693        3.32655
C         -0.07403        4.63433        3.26412
N          0.19796        5.11631        4.45334
C         -0.75239        4.53053        5.25250
N         -1.60187        3.72227        4.60669
N         -0.79184        4.78855        6.63004
O         -1.67911        4.19885        7.25877
H          1.17765       -1.92974        0.57621
H          0.82793       -1.82361       -1.13978
H         -1.35711       -1.98312       -0.59166
H         -1.01070       -1.78959        1.11694
H         -2.59896        0.01273        0.26337
H          1.10303        2.12696       -0.21273
H          2.37123        0.07350       -0.35622
H         -1.30654        3.06784       -0.89904
H         -2.64763        2.41507        0.02366
H          0.45414        4.85277        2.34601

--Link1--
%chk=JID_7650.chk
%mem=8GB
%nprocshared=4
# B3LYP/6-311++G(d,p) empiricaldispersion=gd3bj scf=xqc pop=npa geom=check

CID_143785193_JID_7650_Energie_neutraal

0 1

--Link1--
%chk=JID_7650.chk
%mem=8GB
%nprocshared=4
# B3LYP/6-311++G(d,p) empiricaldispersion=gd3bj scf=xqc pop=npa geom=check

CID_143785193_JID_7650_Energie_kation

1 2

--Link1--
%chk=JID_7650.chk
%mem=8GB
%nprocshared=4
# B3LYP/6-311++G(d,p) empiricaldispersion=gd3bj scf=xqc pop=npa geom=check

CID_143785193_JID_7650_Energie_anion

-1 2
