%chk=JID_7912.chk
%mem=8GB
%nprocshared=4
# opt freq B3LYP/6-31G(d) empiricaldispersion=gd3bj scf=xqc

CID_84221781_JID_7912_neutraal

0 1
C          0.98555        0.03459       -0.09271
C          1.00669        0.75243       -1.43702
N          1.56445        0.01599       -2.58562
C          0.93120        0.45232       -3.85357
C          0.65718        1.94683       -4.05218
C          3.07196       -0.15758       -2.65599
C          3.76110        1.20884       -2.90327
C          3.62430       -0.90313       -1.41245
C          3.17500       -2.21359       -1.13740
C          3.66424       -2.93817       -0.04875
C          4.61523       -2.37056        0.79203
C          5.07309       -1.07922        0.54575
C          4.58397       -0.35146       -0.54451
C          3.44413       -1.10949       -3.88237
O          2.71917       -1.97500       -4.36691
O          4.73305       -0.89607       -4.29846
C          5.16274       -1.77106       -5.34120
H          0.64023       -0.99880       -0.19577
H          0.28661        0.54265        0.58185
H          1.95604        0.04928        0.40438
H         -0.05650        0.93920       -1.64008
H          1.46829        1.73885       -1.32176
H          1.48294        0.10440       -4.73120
H         -0.03583       -0.06423       -3.91500
H          1.55205        2.55881       -3.92432
H          0.28455        2.11684       -5.06839
H         -0.11079        2.31830       -3.36721
H          3.49683        1.95416       -2.14661
H          4.85495        1.12688       -2.89290
H          3.51088        1.61257       -3.88955
H          2.41926       -2.67514       -1.77362
H          3.29701       -3.94337        0.14053
H          4.99609       -2.93222        1.64055
H          5.81332       -0.63332        1.20539
H          4.96818        0.65431       -0.68746
H          5.12951       -2.81267       -5.00674
H          4.55023       -1.62952       -6.23707
H          6.19826       -1.52058       -5.58760

--Link1--
%chk=JID_7912.chk
%mem=8GB
%nprocshared=4
# B3LYP/6-311++G(d,p) empiricaldispersion=gd3bj scf=xqc pop=npa geom=check

CID_84221781_JID_7912_Energie_neutraal

0 1

--Link1--
%chk=JID_7912.chk
%mem=8GB
%nprocshared=4
# B3LYP/6-311++G(d,p) empiricaldispersion=gd3bj scf=xqc pop=npa geom=check

CID_84221781_JID_7912_Energie_kation

1 2

--Link1--
%chk=JID_7912.chk
%mem=8GB
%nprocshared=4
# B3LYP/6-311++G(d,p) empiricaldispersion=gd3bj scf=xqc pop=npa geom=check

CID_84221781_JID_7912_Energie_anion

-1 2
