%chk=JID_7714.chk
%mem=8GB
%nprocshared=4
# opt freq B3LYP/6-31G(d) empiricaldispersion=gd3bj scf=xqc

CID_81641798_JID_7714_neutraal

0 1
C          0.99299        0.06083       -0.07906
C          0.29715        0.28126        1.25759
C          0.61124        1.64601        1.91933
C          0.30072        2.85584        0.98580
C         -1.16548        2.96039        0.55094
C          0.75045        4.19302        1.57636
N         -0.13181        1.63932        3.18609
C          0.60872        2.09005        4.36632
C          0.06967        3.38234        4.91218
C         -1.23094        3.69534        5.25457
C         -1.36941        5.05075        5.66570
C         -0.17466        5.75103        5.64218
S          1.12039        4.69128        5.23836
C          0.06256        7.22886        5.98003
C          0.23895        7.37642        7.50190
C          1.30377        7.81192        5.27153
C         -1.14913        8.07812        5.53418
H          0.58350        0.70721       -0.86041
H          0.85130       -0.97431       -0.40686
H          2.06881        0.24499        0.00134
H         -0.78350        0.15093        1.12043
H          0.61720       -0.52126        1.93644
H          1.69233        1.64682        2.11310
H          0.89808        2.72558        0.07467
H         -1.83210        3.14400        1.39926
H         -1.29491        3.79178       -0.15108
H         -1.50128        2.05337        0.04095
H          0.77465        4.96265        0.79662
H          0.06113        4.54413        2.34701
H          1.75806        4.12172        1.99773
H         -1.01247        2.13823        3.10089
H          0.48369        1.32678        5.14455
H          1.68744        2.15272        4.18104
H         -2.05124        2.99209        5.18257
H         -2.31809        5.49232        5.94708
H          1.10404        6.80678        7.86069
H          0.39030        8.42482        7.78309
H         -0.64122        7.01061        8.04370
H          1.24363        7.67738        4.18493
H          1.39979        8.88682        5.46564
H          2.23296        7.34601        5.61853
H         -1.34693        7.95443        4.46263
H         -2.06231        7.80480        6.07455
H         -0.97589        9.14462        5.71980

--Link1--
%chk=JID_7714.chk
%mem=8GB
%nprocshared=4
# B3LYP/6-311++G(d,p) empiricaldispersion=gd3bj scf=xqc pop=npa geom=check

CID_81641798_JID_7714_Energie_neutraal

0 1

--Link1--
%chk=JID_7714.chk
%mem=8GB
%nprocshared=4
# B3LYP/6-311++G(d,p) empiricaldispersion=gd3bj scf=xqc pop=npa geom=check

CID_81641798_JID_7714_Energie_kation

1 2

--Link1--
%chk=JID_7714.chk
%mem=8GB
%nprocshared=4
# B3LYP/6-311++G(d,p) empiricaldispersion=gd3bj scf=xqc pop=npa geom=check

CID_81641798_JID_7714_Energie_anion

-1 2
