%chk=JID_5764.chk
%mem=8GB
%nprocshared=4
# opt freq B3LYP/6-31G(d) empiricaldispersion=gd3bj scf=xqc

CID_43777460_JID_5764_neutraal

0 1
C          0.92017        0.05514        0.02421
C          0.41176       -0.62180       -1.25886
C          1.34567       -1.79854       -1.63704
C          1.03337       -2.44789       -3.02673
C          1.02865       -3.96000       -2.71165
C          0.32071       -3.97521       -1.35636
C          1.34073       -3.03935       -0.69689
C          2.59309       -3.82831       -1.03197
C          2.41019       -4.36320       -2.24971
N         -0.99506       -1.03662       -1.10128
C         -1.95242        0.06447       -1.32029
C         -2.24262        0.33699       -2.79783
C         -3.21665       -0.65507       -3.39290
O         -4.23220       -0.32331       -3.99399
N         -2.86419       -1.96409       -3.26863
H          0.83747       -0.60402        0.89469
H          0.36051        0.96941        0.24550
H          1.97279        0.34011       -0.08082
H          0.49301        0.10771       -2.07438
H          2.36443       -1.38421       -1.68362
H          0.06113       -2.13123       -3.41553
H          1.79661       -2.18346       -3.76721
H          0.59040       -4.60645       -3.47248
H          0.28499       -4.97154       -0.89556
H         -0.69730       -3.58200       -1.39651
H          1.19330       -2.86345        0.36846
H          3.48683       -3.88325       -0.42926
H          3.12415       -4.93967       -2.81796
H         -1.12009       -1.38084       -0.14611
H         -2.89030       -0.20835       -0.82062
H         -1.60553        0.98312       -0.83525
H         -2.70301        1.32901       -2.88286
H         -1.33517        0.35245       -3.41008
H         -2.13826       -2.22182       -2.60561
H         -3.51648       -2.66687       -3.58634

--Link1--
%chk=JID_5764.chk
%mem=8GB
%nprocshared=4
# B3LYP/6-311++G(d,p) empiricaldispersion=gd3bj scf=xqc pop=npa geom=check

CID_43777460_JID_5764_Energie_neutraal

0 1

--Link1--
%chk=JID_5764.chk
%mem=8GB
%nprocshared=4
# B3LYP/6-311++G(d,p) empiricaldispersion=gd3bj scf=xqc pop=npa geom=check

CID_43777460_JID_5764_Energie_kation

1 2

--Link1--
%chk=JID_5764.chk
%mem=8GB
%nprocshared=4
# B3LYP/6-311++G(d,p) empiricaldispersion=gd3bj scf=xqc pop=npa geom=check

CID_43777460_JID_5764_Energie_anion

-1 2
