%chk=JID_9481.chk
%mem=8GB
%nprocshared=4
# opt freq B3LYP/6-31G(d) empiricaldispersion=gd3bj scf=xqc

CID_82324078_JID_9481_neutraal

0 1
C          0.92636       -0.06223       -0.02654
C         -0.24983       -1.02960        0.10631
C          0.01641       -2.00178        1.25846
C         -1.58855       -0.30638        0.32716
C         -2.19157        0.20585       -0.97189
O         -2.91808       -0.55915       -1.61580
N         -1.91100        1.49533       -1.40930
C         -1.25420        2.55125       -0.62036
C         -0.09610        3.27375       -1.31221
C         -0.54085        4.53516       -1.99284
O         -1.47697        5.25052       -1.67320
O          0.25217        4.87679       -3.02443
C         -2.44371        1.86012       -2.73010
C         -1.49861        1.55728       -3.88521
C         -1.68822        2.20074       -5.10787
C         -0.84967        1.88656       -6.17505
C          0.14324        0.93030       -6.00429
C          0.26604        0.33301       -4.76305
N         -0.51880        0.63194       -3.70641
H          0.99747        0.60502        0.83850
H          0.83329        0.54339       -0.93039
H          1.87192       -0.60988       -0.10567
H         -0.30632       -1.61778       -0.81895
H          0.07857       -1.47494        2.21658
H         -0.78230       -2.74772        1.33080
H          0.95761       -2.54047        1.10456
H         -2.32408       -1.02195        0.72217
H         -1.52587        0.46459        1.09729
H         -2.04671        3.24379       -0.31426
H         -0.85973        2.13067        0.30329
H          0.64034        3.58084       -0.56003
H          0.41237        2.62194       -2.02730
H         -0.12297        5.71911       -3.35604
H         -3.38126        1.32399       -2.91863
H         -2.69433        2.92637       -2.71652
H         -2.47950        2.93229       -5.23541
H         -0.97832        2.37552       -7.13636
H          0.80123        0.65153       -6.81929
H          1.01719       -0.42945       -4.57873

--Link1--
%chk=JID_9481.chk
%mem=8GB
%nprocshared=4
# B3LYP/6-311++G(d,p) empiricaldispersion=gd3bj scf=xqc pop=npa geom=check

CID_82324078_JID_9481_Energie_neutraal

0 1

--Link1--
%chk=JID_9481.chk
%mem=8GB
%nprocshared=4
# B3LYP/6-311++G(d,p) empiricaldispersion=gd3bj scf=xqc pop=npa geom=check

CID_82324078_JID_9481_Energie_kation

1 2

--Link1--
%chk=JID_9481.chk
%mem=8GB
%nprocshared=4
# B3LYP/6-311++G(d,p) empiricaldispersion=gd3bj scf=xqc pop=npa geom=check

CID_82324078_JID_9481_Energie_anion

-1 2
