%chk=JID_10844.chk
%mem=8GB
%nprocshared=4
# opt freq B3LYP/6-31G(d) empiricaldispersion=gd3bj scf=xqc

CID_151435637_JID_10844_neutraal

0 1
C          0.99587        0.06590       -0.07510
C          1.50462       -1.18211        0.62560
O          1.57866       -0.97067        2.04375
C          2.68164       -0.30844        2.48274
O          3.59535        0.09184        1.77445
C          2.62362       -0.08949        3.97030
C          2.44092        1.40075        4.25764
C          0.96554        1.77386        4.44539
O          0.52335        2.44801        5.36660
O          0.21859        1.26652        3.42675
C         -1.20129        1.38372        3.58439
C         -1.70954        0.21639        4.39152
C         -2.11832        0.39466        5.72026
C         -2.55438       -0.69259        6.47871
C         -2.58109       -1.96831        5.91877
C         -2.16850       -2.15916        4.60120
C         -1.73168       -1.07303        3.84097
N          3.22828        1.78377        5.46368
N          2.86256        1.31375        6.55925
N          2.54518        0.85950        7.55410
H          0.03344        0.37597        0.34523
H          0.87116       -0.11598       -1.14629
H          1.68543        0.90520        0.05704
H          0.80073       -2.00510        0.46344
H          2.47365       -1.50255        0.22619
H          1.82492       -0.69674        4.41252
H          3.56733       -0.47349        4.37663
H          2.81436        2.02185        3.43458
H         -1.48562        2.34887        4.02088
H         -1.64874        1.35625        2.58411
H         -2.08555        1.38205        6.17818
H         -2.86626       -0.54389        7.50949
H         -2.91790       -2.81441        6.51214
H         -2.18241       -3.15585        4.16786
H         -1.39898       -1.23796        2.81837

--Link1--
%chk=JID_10844.chk
%mem=8GB
%nprocshared=4
# B3LYP/6-311++G(d,p) empiricaldispersion=gd3bj scf=xqc pop=npa geom=check

CID_151435637_JID_10844_Energie_neutraal

0 1

--Link1--
%chk=JID_10844.chk
%mem=8GB
%nprocshared=4
# B3LYP/6-311++G(d,p) empiricaldispersion=gd3bj scf=xqc pop=npa geom=check

CID_151435637_JID_10844_Energie_kation

1 2

--Link1--
%chk=JID_10844.chk
%mem=8GB
%nprocshared=4
# B3LYP/6-311++G(d,p) empiricaldispersion=gd3bj scf=xqc pop=npa geom=check

CID_151435637_JID_10844_Energie_anion

-1 2
