%chk=JID_4398.chk
%mem=8GB
%nprocshared=4
# opt freq B3LYP/6-31G(d) empiricaldispersion=gd3bj scf=xqc

CID_129933287_JID_4398_neutraal

0 1
C          1.07439       -0.04530        0.04913
C          0.23313       -0.25792       -1.20104
C          0.72227       -1.43507       -2.02052
C          0.31155       -2.76766       -1.76594
C          0.72707       -3.79356       -2.64811
C          1.64904       -3.47931       -3.67317
C          2.12808       -2.18292       -3.86643
C          1.64172       -1.16531       -3.05050
C          3.07803       -1.87555       -4.98474
C          0.27082       -5.25227       -2.58188
C          0.86949       -5.97481       -1.36848
C         -1.25159       -5.48119       -2.68594
C         -1.85841       -4.90408       -3.95908
N         -0.66792       -3.00510       -0.78396
H          1.04885       -0.92033        0.70654
H          0.69973        0.81385        0.61452
H          2.12140        0.14910       -0.20734
H         -0.82228       -0.38631       -0.93524
H          0.26205        0.65309       -1.81262
H          1.99409       -4.26472       -4.34429
H          1.97241       -0.14224       -3.22075
H          2.52088       -1.58169       -5.87962
H          3.75690       -1.06274       -4.70587
H          3.69702       -2.74649       -5.22462
H          0.69447       -5.76886       -3.45581
H          0.47545       -5.60836       -0.41738
H          0.65460       -7.04804       -1.41883
H          1.95869       -5.85647       -1.34244
H         -1.44326       -6.56213       -2.68018
H         -1.78822       -5.07990       -1.82192
H         -1.35610       -5.29895       -4.84790
H         -2.91803       -5.17164       -4.02377
H         -1.78996       -3.81231       -3.97828
H         -0.65390       -2.33633       -0.02293
H         -0.67248       -3.95104       -0.42757

--Link1--
%chk=JID_4398.chk
%mem=8GB
%nprocshared=4
# B3LYP/6-311++G(d,p) empiricaldispersion=gd3bj scf=xqc pop=npa geom=check

CID_129933287_JID_4398_Energie_neutraal

0 1

--Link1--
%chk=JID_4398.chk
%mem=8GB
%nprocshared=4
# B3LYP/6-311++G(d,p) empiricaldispersion=gd3bj scf=xqc pop=npa geom=check

CID_129933287_JID_4398_Energie_kation

1 2

--Link1--
%chk=JID_4398.chk
%mem=8GB
%nprocshared=4
# B3LYP/6-311++G(d,p) empiricaldispersion=gd3bj scf=xqc pop=npa geom=check

CID_129933287_JID_4398_Energie_anion

-1 2
