%chk=JID_4568.chk
%mem=8GB
%nprocshared=4
# opt freq B3LYP/6-31G(d) empiricaldispersion=gd3bj scf=xqc

CID_82710432_JID_4568_neutraal

0 1
C          0.95232       -0.08190       -0.03191
C          0.02858       -0.41797        1.14210
C         -0.36592        0.85064        1.89393
C         -1.21807       -1.17092        0.66365
O         -0.79913       -2.38494        0.03500
N         -1.94152       -2.98924       -0.63838
C         -1.60013       -3.00573       -2.06474
C         -0.30703       -3.74534       -2.44713
C         -0.44647       -5.26045       -2.72186
C          0.89222       -5.83517       -3.23003
C          1.94768       -5.95304       -2.12905
C          1.42967       -6.73023       -0.92192
C          0.09866       -6.18371       -0.41192
C         -0.93242       -6.10299       -1.53491
H          0.43997        0.54078       -0.77323
H          1.30330       -0.98878       -0.53500
H          1.83584        0.46435        0.31542
H          0.59005       -1.07015        1.82335
H         -0.92172        1.53937        1.24864
H         -0.99604        0.61089        2.75687
H          0.52138        1.37516        2.26401
H         -1.86481       -1.41868        1.51357
H         -1.78522       -0.55453       -0.04555
H         -1.91899       -3.93081       -0.25247
H         -2.44469       -3.42956       -2.61953
H         -1.51573       -1.96326       -2.39667
H          0.05526       -3.28093       -3.37513
H          0.47749       -3.55098       -1.70846
H         -1.18003       -5.37361       -3.53146
H          0.71097       -6.83298       -3.65046
H          1.28422       -5.22182       -4.05003
H          2.26970       -4.95501       -1.81044
H          2.83759       -6.45242       -2.52931
H          2.17336       -6.70227       -0.11751
H          1.30334       -7.78393       -1.20020
H          0.25253       -5.19479        0.03398
H         -0.27938       -6.83348        0.38561
H         -1.88977       -5.73854       -1.15438
H         -1.13401       -7.12227       -1.89192

--Link1--
%chk=JID_4568.chk
%mem=8GB
%nprocshared=4
# B3LYP/6-311++G(d,p) empiricaldispersion=gd3bj scf=xqc pop=npa geom=check

CID_82710432_JID_4568_Energie_neutraal

0 1

--Link1--
%chk=JID_4568.chk
%mem=8GB
%nprocshared=4
# B3LYP/6-311++G(d,p) empiricaldispersion=gd3bj scf=xqc pop=npa geom=check

CID_82710432_JID_4568_Energie_kation

1 2

--Link1--
%chk=JID_4568.chk
%mem=8GB
%nprocshared=4
# B3LYP/6-311++G(d,p) empiricaldispersion=gd3bj scf=xqc pop=npa geom=check

CID_82710432_JID_4568_Energie_anion

-1 2
