%chk=JID_7980.chk
%mem=8GB
%nprocshared=4
# opt freq B3LYP/6-31G(d) empiricaldispersion=gd3bj scf=xqc

CID_82927425_JID_7980_neutraal

0 1
C          1.03380        0.06983       -0.06310
C          0.01989       -0.28425       -1.14454
C          0.61312       -0.18747       -2.56727
C          0.14998       -1.36080       -3.45780
C         -1.35016       -1.43201       -3.71296
C          0.30997        1.16713       -3.24232
O          0.81597        2.24237       -2.44659
C          0.43597        3.50285       -2.84231
C          0.22751        3.85327       -4.18293
C         -0.10812        5.16289       -4.53245
C         -0.22343        6.13776       -3.54875
C         -0.00347        5.80250       -2.21408
C          0.31925        4.48345       -1.83735
C          0.57067        4.14756       -0.37346
C          2.01778        4.50244       -0.01161
N         -0.33889        4.84653        0.56151
C         -1.69341        4.30549        0.49792
H          1.84777       -0.66254       -0.04482
H          0.55420        0.06253        0.92075
H          1.47525        1.05596       -0.21993
H         -0.32048       -1.30676       -0.94111
H         -0.85881        0.36458       -1.04979
H          1.70548       -0.27111       -2.48145
H          0.66671       -1.30416       -4.42397
H          0.47023       -2.30293       -2.99527
H         -1.70121       -0.57072       -4.28834
H         -1.58541       -2.33046       -4.29312
H         -1.91831       -1.48051       -2.77965
H          0.80104        1.17217       -4.22235
H         -0.77153        1.29118       -3.37421
H          0.34325        3.13148       -4.98403
H         -0.26587        5.42322       -5.57569
H         -0.47666        7.15988       -3.81662
H         -0.08887        6.57583       -1.45245
H          0.44406        3.07314       -0.20682
H          2.24615        4.21465        1.02092
H          2.72505        3.97627       -0.66305
H          2.21185        5.57683       -0.11224
H          0.01297        4.71937        1.50928
H         -1.71281        3.24022        0.75080
H         -2.32384        4.83089        1.22225
H         -2.14684        4.44774       -0.48765

--Link1--
%chk=JID_7980.chk
%mem=8GB
%nprocshared=4
# B3LYP/6-311++G(d,p) empiricaldispersion=gd3bj scf=xqc pop=npa geom=check

CID_82927425_JID_7980_Energie_neutraal

0 1

--Link1--
%chk=JID_7980.chk
%mem=8GB
%nprocshared=4
# B3LYP/6-311++G(d,p) empiricaldispersion=gd3bj scf=xqc pop=npa geom=check

CID_82927425_JID_7980_Energie_kation

1 2

--Link1--
%chk=JID_7980.chk
%mem=8GB
%nprocshared=4
# B3LYP/6-311++G(d,p) empiricaldispersion=gd3bj scf=xqc pop=npa geom=check

CID_82927425_JID_7980_Energie_anion

-1 2
