%chk=JID_7657.chk
%mem=8GB
%nprocshared=4
# opt freq B3LYP/6-31G(d) empiricaldispersion=gd3bj scf=xqc

CID_55241639_JID_7657_neutraal

0 1
C          1.05737       -0.05494       -0.06074
O          2.26050       -0.78413       -0.27101
C          2.17006       -1.66971       -1.32645
N          0.97955       -1.89808       -1.92027
C          0.97588       -2.76864       -2.95646
C          2.10977       -3.41102       -3.44324
C          3.32058       -3.15707       -2.78967
C          3.35193       -2.27956       -1.71094
C          2.04127       -4.32809       -4.63353
N          2.19535       -5.72579       -4.24188
C          2.45927       -6.61186       -5.37553
C          3.93256       -7.01192       -5.59616
C          4.51424       -7.83220       -4.43312
C          5.97786       -8.17677       -4.69951
C          6.76863       -6.92690       -5.05978
O          6.17859       -6.26566       -6.17859
C          4.84782       -5.82385       -5.90244
H          1.23563        0.65349        0.75417
H          0.24025       -0.71612        0.24808
H          0.78146        0.52431       -0.94902
H         -0.00073       -2.93326       -3.40463
H          4.24074       -3.63082       -3.11954
H          4.27711       -2.06263       -1.18999
H          1.08124       -4.20034       -5.14859
H          2.81634       -4.01215       -5.34089
H          2.90658       -5.82254       -3.52193
H          1.88958       -7.53244       -5.19738
H          2.04954       -6.19278       -6.30378
H          3.95405       -7.66942       -6.47755
H          4.45402       -7.27070       -3.49381
H          3.93803       -8.75419       -4.29408
H          6.41792       -8.66709       -3.82492
H          6.02441       -8.88494       -5.53584
H          6.82535       -6.23240       -4.21307
H          7.79288       -7.19830       -5.33391
H          4.49068       -5.28977       -6.78911
H          4.88527       -5.10793       -5.07439

--Link1--
%chk=JID_7657.chk
%mem=8GB
%nprocshared=4
# B3LYP/6-311++G(d,p) empiricaldispersion=gd3bj scf=xqc pop=npa geom=check

CID_55241639_JID_7657_Energie_neutraal

0 1

--Link1--
%chk=JID_7657.chk
%mem=8GB
%nprocshared=4
# B3LYP/6-311++G(d,p) empiricaldispersion=gd3bj scf=xqc pop=npa geom=check

CID_55241639_JID_7657_Energie_kation

1 2

--Link1--
%chk=JID_7657.chk
%mem=8GB
%nprocshared=4
# B3LYP/6-311++G(d,p) empiricaldispersion=gd3bj scf=xqc pop=npa geom=check

CID_55241639_JID_7657_Energie_anion

-1 2
