%chk=JID_2869.chk
%mem=8GB
%nprocshared=4
# opt freq B3LYP/6-31G(d) empiricaldispersion=gd3bj scf=xqc

CID_129808142_JID_2869_neutraal

0 1
C          1.06191        0.07426        0.02556
C          1.47098        1.35584        0.72928
O          1.82586        2.36702       -0.22602
C          3.09012        2.29027       -0.72218
O          3.92322        1.44879       -0.41560
C          3.34072        3.39902       -1.71347
C          2.68321        3.13775       -3.06720
C          1.19777        3.51164       -3.15333
C          0.84922        4.98683       -2.93313
S          1.43673        6.07418       -4.27708
C          2.95707        6.75495       -3.53990
C          2.66217        7.80298       -2.48190
H          0.25625        0.26937       -0.68986
H          0.71978       -0.67168        0.74851
H          1.89573       -0.34945       -0.54257
H          0.62300        1.74467        1.30275
H          2.28784        1.18299        1.43931
H          3.05351        4.35497       -1.26682
H          4.42790        3.44957       -1.85437
H          3.23614        3.68044       -3.84183
H          2.78111        2.07346       -3.31717
H          0.81885        3.19653       -4.13464
H          0.63754        2.91689       -2.42261
H         -0.24294        5.07754       -2.92879
H          1.18758        5.34236       -1.95756
H          3.57420        5.95247       -3.12979
H          3.53086        7.21778       -4.34957
H          2.13078        7.38341       -1.62280
H          3.60157        8.22544       -2.10937
H          2.06852        8.62803       -2.88947

--Link1--
%chk=JID_2869.chk
%mem=8GB
%nprocshared=4
# B3LYP/6-311++G(d,p) empiricaldispersion=gd3bj scf=xqc pop=npa geom=check

CID_129808142_JID_2869_Energie_neutraal

0 1

--Link1--
%chk=JID_2869.chk
%mem=8GB
%nprocshared=4
# B3LYP/6-311++G(d,p) empiricaldispersion=gd3bj scf=xqc pop=npa geom=check

CID_129808142_JID_2869_Energie_kation

1 2

--Link1--
%chk=JID_2869.chk
%mem=8GB
%nprocshared=4
# B3LYP/6-311++G(d,p) empiricaldispersion=gd3bj scf=xqc pop=npa geom=check

CID_129808142_JID_2869_Energie_anion

-1 2
