%chk=JID_7594.chk
%mem=8GB
%nprocshared=4
# opt freq B3LYP/6-31G(d) empiricaldispersion=gd3bj scf=xqc

CID_63557376_JID_7594_neutraal

0 1
C         -1.10600       -0.72000       -0.20700
C          0.16850       -1.45700        0.15664
O          1.27312       -0.63968       -0.26177
C          0.74863        0.63904       -0.67614
C         -0.66004        0.72216       -0.09833
N         -1.57330        1.72970       -0.68258
C         -2.80694        1.98841        0.09598
C         -3.27039        3.43616       -0.04459
C         -4.22920        3.59523       -1.18550
O         -5.18122        2.87380       -1.43877
O         -3.99456        4.70314       -1.91498
C         -1.72898        1.71793       -2.07447
C         -0.89885        2.53731       -2.85238
C         -1.01820        2.57872       -4.24379
C         -1.97873        1.80002       -4.88223
C         -2.81871        0.98578       -4.12813
C         -2.69463        0.94827       -2.73609
H         -1.39070       -0.98355       -1.23069
H         -1.94238       -0.97441        0.45023
H          0.24951       -1.59451        1.24023
H          0.23578       -2.43757       -0.32306
H          0.77635        0.64947       -1.76901
H          1.39963        1.43651       -0.30557
H         -0.54475        0.95753        0.96983
H         -3.59572        1.26396       -0.13714
H         -2.57403        1.84050        1.15852
H         -3.80910        3.74912        0.85735
H         -2.41642        4.11158       -0.16958
H         -4.65534        4.65836       -2.63649
H         -0.15472        3.16256       -2.36478
H         -0.36254        3.22185       -4.82418
H         -2.07420        1.82897       -5.96418
H         -3.57415        0.37813       -4.61924
H         -3.36529        0.30235       -2.17642

--Link1--
%chk=JID_7594.chk
%mem=8GB
%nprocshared=4
# B3LYP/6-311++G(d,p) empiricaldispersion=gd3bj scf=xqc pop=npa geom=check

CID_63557376_JID_7594_Energie_neutraal

0 1

--Link1--
%chk=JID_7594.chk
%mem=8GB
%nprocshared=4
# B3LYP/6-311++G(d,p) empiricaldispersion=gd3bj scf=xqc pop=npa geom=check

CID_63557376_JID_7594_Energie_kation

1 2

--Link1--
%chk=JID_7594.chk
%mem=8GB
%nprocshared=4
# B3LYP/6-311++G(d,p) empiricaldispersion=gd3bj scf=xqc pop=npa geom=check

CID_63557376_JID_7594_Energie_anion

-1 2
