%chk=JID_3492.chk
%mem=8GB
%nprocshared=4
# opt freq B3LYP/6-31G(d) empiricaldispersion=gd3bj scf=xqc

CID_150181357_JID_3492_neutraal

0 1
C          0.93353        0.07320       -0.01495
N          0.35028        0.99369        0.95028
C         -0.82732        1.71358        0.48585
C          0.76988        0.90394        2.27011
O          1.66719        0.13186        2.62054
C          0.16362        1.82488        3.30983
C          1.01122        3.08182        3.46466
N          0.81049        4.04922        2.40181
C         -0.19694        4.96855        2.31748
O         -0.27779        5.66647        1.31147
N         -1.05117        4.99325        3.37750
N         -1.87504        5.91643        3.28791
N         -2.65163        6.75066        3.24462
H          1.10493        0.60233       -0.95712
H          0.23263       -0.75077       -0.17941
H          1.88669       -0.33611        0.33002
H         -1.14787        2.49612        1.16965
H         -0.60344        2.17636       -0.48008
H         -1.64492        0.99665        0.36516
H         -0.88894        2.03958        3.11815
H          0.17821        1.26988        4.25715
H          0.77528        3.56442        4.41935
H          2.07951        2.83904        3.47249
H          1.41016        4.01399        1.58667

--Link1--
%chk=JID_3492.chk
%mem=8GB
%nprocshared=4
# B3LYP/6-311++G(d,p) empiricaldispersion=gd3bj scf=xqc pop=npa geom=check

CID_150181357_JID_3492_Energie_neutraal

0 1

--Link1--
%chk=JID_3492.chk
%mem=8GB
%nprocshared=4
# B3LYP/6-311++G(d,p) empiricaldispersion=gd3bj scf=xqc pop=npa geom=check

CID_150181357_JID_3492_Energie_kation

1 2

--Link1--
%chk=JID_3492.chk
%mem=8GB
%nprocshared=4
# B3LYP/6-311++G(d,p) empiricaldispersion=gd3bj scf=xqc pop=npa geom=check

CID_150181357_JID_3492_Energie_anion

-1 2
