%chk=JID_7555.chk
%mem=8GB
%nprocshared=4
# opt freq B3LYP/6-31G(d) empiricaldispersion=gd3bj scf=xqc

CID_113384388_JID_7555_neutraal

0 1
C          1.07135        0.04706        0.05191
C         -0.35798       -0.47402       -1.52234
C         -0.73555       -2.07417       -2.18772
C         -2.05835        0.03086       -1.81004
C         -2.78619        1.39913       -1.78961
C         -2.24782        2.68321       -2.43198
O         -1.90620        2.65544       -3.80311
C         -0.68555        2.04408       -4.18182
C          0.62152        2.70022       -3.71117
C          0.99982        2.67343       -2.22442
C          0.74291        1.36995       -1.52966
C          1.74534       -0.07386       -1.92809
C          1.42945       -1.63698       -1.09181
C          0.08841       -1.77432        0.11206
C         -0.90902       -0.33427        0.52893
C         -0.55278        1.24545       -0.26772
N          0.02292       -2.91463        0.93441
H          0.96023       -0.28235        1.13678
H          1.31830        1.12007        0.34871
H          2.17603       -0.22828        0.02722
H         -0.07196       -0.13916       -2.54283
H         -1.46256       -2.60434       -1.56079
H         -1.21784       -1.93056       -3.16423
H          0.10768       -2.72164       -2.44433
H         -2.24337       -0.28846       -2.84645
H         -2.67858       -0.65693       -1.21358
H         -3.74804        1.20645       -2.29005
H         -3.07830        1.63020       -0.75658
H         -3.07420        3.40458       -2.37262
H         -1.47272        3.16197       -1.84425
H         -0.72245        0.97631       -3.99047
H         -0.67496        2.10841       -5.27767
H          1.43511        2.21128       -4.26402
H          0.62072        3.74979       -4.03127
H          2.07085        2.89253       -2.13111
H          0.50669        3.48432       -1.68128
H          2.55821        0.00437       -2.64451
H          2.09533       -2.47995       -1.25950
H         -1.62326       -0.38176        1.34541
H         -1.04492        2.14385        0.09842
H         -0.89863       -3.04473        1.34008
H          0.36498       -3.74771        0.46563

--Link1--
%chk=JID_7555.chk
%mem=8GB
%nprocshared=4
# B3LYP/6-311++G(d,p) empiricaldispersion=gd3bj scf=xqc pop=npa geom=check

CID_113384388_JID_7555_Energie_neutraal

0 1

--Link1--
%chk=JID_7555.chk
%mem=8GB
%nprocshared=4
# B3LYP/6-311++G(d,p) empiricaldispersion=gd3bj scf=xqc pop=npa geom=check

CID_113384388_JID_7555_Energie_kation

1 2

--Link1--
%chk=JID_7555.chk
%mem=8GB
%nprocshared=4
# B3LYP/6-311++G(d,p) empiricaldispersion=gd3bj scf=xqc pop=npa geom=check

CID_113384388_JID_7555_Energie_anion

-1 2
