%chk=JID_6307.chk
%mem=8GB
%nprocshared=4
# opt freq B3LYP/6-31G(d) empiricaldispersion=gd3bj scf=xqc

CID_104536085_JID_6307_neutraal

0 1
C          0.90529       -0.03124       -0.00743
C          1.29942        1.39863        0.32859
N          1.61263        2.15466       -0.88004
C          0.60894        2.64261       -1.72105
C         -0.67568        2.99122       -1.28773
C         -1.59705        3.55919       -2.17192
C         -1.19863        3.74660       -3.48904
N          0.03520        3.46386       -3.95723
C          0.90326        2.94515       -3.05667
O         -2.87845        3.92879       -1.87596
C         -3.17313        4.24917       -0.51236
C         -3.76102        3.05543        0.14597
C         -4.62429        2.06274       -0.27178
C         -4.82035        1.20853        0.83908
C         -4.06853        1.73374        1.86328
O         -3.42030        2.85381        1.45250
H         -0.01392       -0.06254       -0.60120
H          0.73590       -0.60339        0.91002
H          1.69254       -0.53135       -0.58147
H          0.53460        1.88570        0.94118
H          2.20509        1.37176        0.94552
H          2.38880        1.74695       -1.39736
H         -0.95771        2.81550       -0.25751
H         -1.88440        4.16287       -4.22151
H          1.89563        2.75891       -3.45883
H         -2.30612        4.65269        0.02354
H         -3.92661        5.04485       -0.52879
H         -5.05328        1.97233       -1.26052
H         -5.43526        0.32108        0.88844
H         -3.89811        1.44549        2.89117

--Link1--
%chk=JID_6307.chk
%mem=8GB
%nprocshared=4
# B3LYP/6-311++G(d,p) empiricaldispersion=gd3bj scf=xqc pop=npa geom=check

CID_104536085_JID_6307_Energie_neutraal

0 1

--Link1--
%chk=JID_6307.chk
%mem=8GB
%nprocshared=4
# B3LYP/6-311++G(d,p) empiricaldispersion=gd3bj scf=xqc pop=npa geom=check

CID_104536085_JID_6307_Energie_kation

1 2

--Link1--
%chk=JID_6307.chk
%mem=8GB
%nprocshared=4
# B3LYP/6-311++G(d,p) empiricaldispersion=gd3bj scf=xqc pop=npa geom=check

CID_104536085_JID_6307_Energie_anion

-1 2
