%chk=JID_7476.chk
%mem=8GB
%nprocshared=4
# opt freq B3LYP/6-31G(d) empiricaldispersion=gd3bj scf=xqc

CID_114190189_JID_7476_neutraal

0 1
C          1.08436        0.04948        0.02084
C          1.60821        0.81124        1.22765
C          1.88673        2.26560        0.93770
C          3.05322        2.73096        0.31291
N          3.29617        4.06005        0.10566
C          2.35406        4.94264        0.49760
C          1.16617        4.57610        1.09646
C          0.93461        3.22345        1.31878
C          4.14576        1.81025       -0.20890
C          4.05928        1.69624       -1.74243
C          4.23117        0.30247       -2.19548
C          4.29113       -0.84063       -2.56070
C          4.30348       -2.25305       -3.00280
C          3.01182       -2.54899       -3.77947
C          5.51675       -2.49710       -3.90880
C          4.38150       -3.16909       -1.77352
O          5.42360        2.37590        0.14324
H          0.16124        0.50054       -0.35885
H          0.86587       -0.98746        0.29539
H          1.80538        0.03327       -0.79749
H          0.86736        0.73709        2.03457
H          2.50608        0.32718        1.62680
H          2.58667        5.98652        0.30740
H          0.43863        5.32446        1.38970
H          0.00645        2.91883        1.79790
H          4.10873        0.83280        0.27808
H          4.81705        2.32753       -2.22174
H          3.08090        2.03403       -2.10776
H          2.98303       -3.58982       -4.12090
H          2.12450       -2.37623       -3.15828
H          2.92037       -1.90452       -4.66203
H          6.45585       -2.28982       -3.38218
H          5.54973       -3.53617       -4.25541
H          5.48999       -1.85017       -4.79381
H          4.38442       -4.22532       -2.06545
H          5.29151       -2.97970       -1.19190
H          3.52823       -3.01006       -1.10297
H          5.24659        3.33276        0.25653

--Link1--
%chk=JID_7476.chk
%mem=8GB
%nprocshared=4
# B3LYP/6-311++G(d,p) empiricaldispersion=gd3bj scf=xqc pop=npa geom=check

CID_114190189_JID_7476_Energie_neutraal

0 1

--Link1--
%chk=JID_7476.chk
%mem=8GB
%nprocshared=4
# B3LYP/6-311++G(d,p) empiricaldispersion=gd3bj scf=xqc pop=npa geom=check

CID_114190189_JID_7476_Energie_kation

1 2

--Link1--
%chk=JID_7476.chk
%mem=8GB
%nprocshared=4
# B3LYP/6-311++G(d,p) empiricaldispersion=gd3bj scf=xqc pop=npa geom=check

CID_114190189_JID_7476_Energie_anion

-1 2
