%chk=JID_1379.chk
%mem=8GB
%nprocshared=4
# opt freq B3LYP/6-31G(d) empiricaldispersion=gd3bj scf=xqc

CID_89065893_JID_1379_neutraal

0 1
C          1.08185       -0.01854        0.05437
C          0.44365       -0.25704       -1.31188
C          1.08701       -1.36007       -2.17043
C          1.12878       -2.71556       -1.44640
C          0.43199       -1.59685       -3.57261
O          1.13249       -2.08809       -4.47873
C         -1.07594       -1.43868       -3.83852
C         -1.90474       -2.62607       -3.31005
S         -2.91994       -2.29105       -1.82505
N         -1.58098       -0.08781       -3.53483
N          2.49470       -0.95110       -2.43648
H          0.98898       -0.89747        0.69888
H          0.57456        0.81092        0.55869
H          2.14009        0.24509       -0.02793
H         -0.60585       -0.49251       -1.12301
H          0.45602        0.69213       -1.86327
H          0.13290       -3.02350       -1.11777
H          1.51209       -3.50861       -2.10026
H          1.77063       -2.69162       -0.55827
H         -1.13324       -1.51049       -4.93565
H         -2.62428       -2.91521       -4.08465
H         -1.27709       -3.50013       -3.11024
H         -1.92993       -2.31778       -0.92300
H         -2.22753        0.19667       -4.27292
H         -2.16727       -0.13535       -2.69708
H          3.09613       -1.20018       -1.65447
H          2.83058       -1.49417       -3.23984

--Link1--
%chk=JID_1379.chk
%mem=8GB
%nprocshared=4
# B3LYP/6-311++G(d,p) empiricaldispersion=gd3bj scf=xqc pop=npa geom=check

CID_89065893_JID_1379_Energie_neutraal

0 1

--Link1--
%chk=JID_1379.chk
%mem=8GB
%nprocshared=4
# B3LYP/6-311++G(d,p) empiricaldispersion=gd3bj scf=xqc pop=npa geom=check

CID_89065893_JID_1379_Energie_kation

1 2

--Link1--
%chk=JID_1379.chk
%mem=8GB
%nprocshared=4
# B3LYP/6-311++G(d,p) empiricaldispersion=gd3bj scf=xqc pop=npa geom=check

CID_89065893_JID_1379_Energie_anion

-1 2
