%chk=JID_9267.chk
%mem=8GB
%nprocshared=4
# opt freq B3LYP/6-31G(d) empiricaldispersion=gd3bj scf=xqc

CID_120947059_JID_9267_neutraal

0 1
C         -0.78300       -1.00900       -0.20000
C         -1.23958        0.43464       -0.38532
C          0.04578        1.18157       -0.77033
C          1.17580        0.16437       -0.57413
N          0.58565       -0.85824        0.29626
O          0.22017        2.30013        0.09729
C         -2.33120        0.58711       -1.44386
N         -3.55292       -0.12891       -1.10788
C         -4.47516        0.16980       -0.13536
O         -5.26567       -0.68767        0.24636
C         -4.50298        1.51391        0.47584
C         -4.44390        1.60845        1.87254
C         -4.48938        2.87635        2.49942
C         -4.61413        4.01111        1.69202
C         -4.70296        3.91574        0.28851
C         -4.65562        2.65323       -0.30789
S         -4.64978        5.45279        2.63659
C         -4.50821        4.58789        4.09869
C         -4.43348        3.23095        3.88925
H         -0.78711       -1.56688       -1.14432
H         -1.40728       -1.54497        0.52130
H         -1.61372        0.81323        0.57533
H          0.03455        1.55601       -1.79893
H          2.06938        0.59907       -0.11724
H          1.44841       -0.28885       -1.53448
H          1.09809       -1.73646        0.21984
H          0.35194        1.93690        0.99379
H         -2.55942        1.64488       -1.59546
H         -1.99398        0.18897       -2.40781
H         -3.63254       -1.09180       -1.41525
H         -4.36202        0.70569        2.47373
H         -4.81558        4.80910       -0.31966
H         -4.75229        2.56956       -1.38754
H         -4.48773        5.11389        5.04327
H         -4.34187        2.51366        4.69576

--Link1--
%chk=JID_9267.chk
%mem=8GB
%nprocshared=4
# B3LYP/6-311++G(d,p) empiricaldispersion=gd3bj scf=xqc pop=npa geom=check

CID_120947059_JID_9267_Energie_neutraal

0 1

--Link1--
%chk=JID_9267.chk
%mem=8GB
%nprocshared=4
# B3LYP/6-311++G(d,p) empiricaldispersion=gd3bj scf=xqc pop=npa geom=check

CID_120947059_JID_9267_Energie_kation

1 2

--Link1--
%chk=JID_9267.chk
%mem=8GB
%nprocshared=4
# B3LYP/6-311++G(d,p) empiricaldispersion=gd3bj scf=xqc pop=npa geom=check

CID_120947059_JID_9267_Energie_anion

-1 2
