%chk=JID_10259.chk
%mem=8GB
%nprocshared=4
# opt freq B3LYP/6-31G(d) empiricaldispersion=gd3bj scf=xqc

CID_134938903_JID_10259_neutraal

0 1
C          2.42900        1.51200       -0.04500
N          1.64980        0.31539        0.20957
C          0.28538        0.32079        0.44749
C         -0.65001        1.37219        0.47152
C         -1.98863        1.06935        0.73663
C         -2.38729       -0.23769        0.98434
C         -1.45139       -1.27550        0.97108
C         -0.09383       -1.00069        0.69218
C          1.07795       -1.81312        0.59184
C          2.13630       -0.98317        0.22805
C          3.50315       -1.25561       -0.11595
C          3.70958       -2.14826       -1.10345
C          4.69205       -0.64987        0.53856
C          5.74559       -0.11265       -0.22087
C          6.83459        0.50156        0.40065
C          6.88208        0.59152        1.78930
C          5.84182        0.06941        2.55616
C          4.75120       -0.54538        1.93503
C          1.17370       -3.24798        0.80841
O          0.21498       -3.97853        1.04888
H          1.77310        2.34897       -0.28991
H          2.99979        1.74924        0.85547
H          3.08422        1.34034       -0.90216
H         -0.36071        2.40065        0.28268
H         -2.72650        1.86815        0.74824
H         -3.43163       -0.45936        1.18832
H         -1.77408       -2.29599        1.16426
H          4.70659       -2.44456       -1.41650
H          2.88954       -2.61682       -1.64104
H          5.71847       -0.15200       -1.30777
H          7.64108        0.91400       -0.20036
H          7.72833        1.07164        2.27414
H          5.87684        0.14344        3.64017
H          3.94607       -0.93959        2.55149
H          2.18727       -3.67695        0.75700

--Link1--
%chk=JID_10259.chk
%mem=8GB
%nprocshared=4
# B3LYP/6-311++G(d,p) empiricaldispersion=gd3bj scf=xqc pop=npa geom=check

CID_134938903_JID_10259_Energie_neutraal

0 1

--Link1--
%chk=JID_10259.chk
%mem=8GB
%nprocshared=4
# B3LYP/6-311++G(d,p) empiricaldispersion=gd3bj scf=xqc pop=npa geom=check

CID_134938903_JID_10259_Energie_kation

1 2

--Link1--
%chk=JID_10259.chk
%mem=8GB
%nprocshared=4
# B3LYP/6-311++G(d,p) empiricaldispersion=gd3bj scf=xqc pop=npa geom=check

CID_134938903_JID_10259_Energie_anion

-1 2
