%chk=JID_6846.chk
%mem=8GB
%nprocshared=4
# opt freq B3LYP/6-31G(d) empiricaldispersion=gd3bj scf=xqc

CID_43670108_JID_6846_neutraal

0 1
C         -2.31600        0.00600       -0.01000
C         -0.84135       -0.15255        0.09789
N         -0.19843       -1.28369       -0.09552
C          1.17009       -1.10315        0.09354
C          1.52662        0.19750        0.41003
S          0.14069        1.19864        0.49085
C          2.07603       -2.30534       -0.09632
C          2.37589       -2.50884       -1.58268
N          3.28716       -2.13066        0.71615
C          4.09518       -3.34039        0.89556
C          5.31495       -3.47451       -0.03723
C          6.26372       -2.30967        0.03916
C          6.41275       -1.27224       -0.86118
C          7.40882       -0.33946       -0.45267
C          7.99565       -0.70170        0.73865
S          7.35118       -2.15996        1.35489
H         -2.73767        0.38929        0.92461
H         -2.57412        0.69381       -0.82144
H         -2.78976       -0.95795       -0.22185
H          2.51117        0.59661        0.60342
H          1.51854       -3.17534        0.27535
H          3.00814       -1.70671       -1.98037
H          2.87597       -3.46495       -1.76119
H          1.45095       -2.51633       -2.17118
H          3.86121       -1.37800        0.34204
H          4.45634       -3.32396        1.93122
H          3.47778       -4.24352        0.81605
H          5.85204       -4.39778        0.21590
H          4.98573       -3.59727       -1.07456
H          5.83111       -1.18232       -1.77107
H          7.68379        0.55044       -1.00546
H          8.77662       -0.18311        1.27762

--Link1--
%chk=JID_6846.chk
%mem=8GB
%nprocshared=4
# B3LYP/6-311++G(d,p) empiricaldispersion=gd3bj scf=xqc pop=npa geom=check

CID_43670108_JID_6846_Energie_neutraal

0 1

--Link1--
%chk=JID_6846.chk
%mem=8GB
%nprocshared=4
# B3LYP/6-311++G(d,p) empiricaldispersion=gd3bj scf=xqc pop=npa geom=check

CID_43670108_JID_6846_Energie_kation

1 2

--Link1--
%chk=JID_6846.chk
%mem=8GB
%nprocshared=4
# B3LYP/6-311++G(d,p) empiricaldispersion=gd3bj scf=xqc pop=npa geom=check

CID_43670108_JID_6846_Energie_anion

-1 2
