%chk=JID_7965.chk
%mem=8GB
%nprocshared=4
# opt freq B3LYP/6-31G(d) empiricaldispersion=gd3bj scf=xqc

CID_61282718_JID_7965_neutraal

0 1
C          0.98378        0.09194       -0.03582
C         -0.11914        0.97363       -0.61730
C          0.17763        1.39012       -2.05731
O         -1.44038        0.43177       -0.42740
C         -1.74003       -0.68185       -1.15939
C         -2.44686       -0.54014       -2.34882
C         -2.81339       -1.67226       -3.07103
C         -2.49380       -2.94639       -2.58843
C         -1.81552       -3.11045       -1.36793
C         -1.46208       -1.95166       -0.65372
C         -1.46827       -4.42927       -0.79614
N         -0.94026       -4.59304        0.40443
C         -0.72698       -5.93175        0.66031
C         -1.07644       -6.79915       -0.35210
S         -1.69395       -5.89969       -1.67254
C         -0.96184       -8.28289       -0.40147
N         -2.23278       -8.91320       -0.06776
H          1.13427       -0.81331       -0.63256
H          0.73144       -0.22238        0.98217
H          1.93642        0.63087       -0.00706
H         -0.12319        1.89604       -0.02291
H          0.27438        0.52197       -2.71752
H         -0.62922        2.01577       -2.45278
H          1.11318        1.95618       -2.11274
H         -2.71492        0.44821       -2.71040
H         -3.35831       -1.56685       -4.00576
H         -2.80587       -3.80323       -3.18034
H         -0.96899       -2.04200        0.31192
H         -0.30538       -6.22219        1.61494
H         -0.64274       -8.61221       -1.39669
H         -0.19547       -8.62014        0.30597
H         -2.10902       -9.92296       -0.03486
H         -2.51964       -8.62596        0.86648

--Link1--
%chk=JID_7965.chk
%mem=8GB
%nprocshared=4
# B3LYP/6-311++G(d,p) empiricaldispersion=gd3bj scf=xqc pop=npa geom=check

CID_61282718_JID_7965_Energie_neutraal

0 1

--Link1--
%chk=JID_7965.chk
%mem=8GB
%nprocshared=4
# B3LYP/6-311++G(d,p) empiricaldispersion=gd3bj scf=xqc pop=npa geom=check

CID_61282718_JID_7965_Energie_kation

1 2

--Link1--
%chk=JID_7965.chk
%mem=8GB
%nprocshared=4
# B3LYP/6-311++G(d,p) empiricaldispersion=gd3bj scf=xqc pop=npa geom=check

CID_61282718_JID_7965_Energie_anion

-1 2
