%chk=JID_4235.chk
%mem=8GB
%nprocshared=4
# opt freq B3LYP/6-31G(d) empiricaldispersion=gd3bj scf=xqc

CID_63359894_JID_4235_neutraal

0 1
C          0.78100       -1.26600       -0.21900
C          1.16919        0.01025        0.52184
C          0.40996        1.22511       -0.03928
C         -1.09870        0.90051       -0.08154
O         -1.35121       -0.29313       -0.83201
C         -0.73048       -1.43509       -0.24496
N          0.79296        2.39711        0.76290
C          0.29731        3.67362        0.22256
C         -1.04833        4.09775        0.77594
N         -1.50890        3.49463        1.90917
C         -2.70455        3.93516        2.36352
C         -3.41611        4.93851        1.72931
N         -2.96512        5.55198        0.61267
C         -1.76874        5.11339        0.15471
H          1.15466       -1.20093       -1.24826
H          1.25295       -2.13539        0.25061
H          0.94363       -0.11604        1.58932
H          2.25232        0.16386        0.43987
H          0.76182        1.36538       -1.07048
H         -1.51577        0.78336        0.92596
H         -1.65003        1.70248       -0.58100
H         -0.99750       -2.30774       -0.84934
H         -1.13326       -1.59388        0.76227
H          0.39251        2.30820        1.70351
H          1.01728        4.44981        0.50753
H          0.27109        3.65128       -0.87350
H         -3.07944        3.45609        3.26068
H         -4.37374        5.27932        2.10586
H         -1.40325        5.60884       -0.73860

--Link1--
%chk=JID_4235.chk
%mem=8GB
%nprocshared=4
# B3LYP/6-311++G(d,p) empiricaldispersion=gd3bj scf=xqc pop=npa geom=check

CID_63359894_JID_4235_Energie_neutraal

0 1

--Link1--
%chk=JID_4235.chk
%mem=8GB
%nprocshared=4
# B3LYP/6-311++G(d,p) empiricaldispersion=gd3bj scf=xqc pop=npa geom=check

CID_63359894_JID_4235_Energie_kation

1 2

--Link1--
%chk=JID_4235.chk
%mem=8GB
%nprocshared=4
# B3LYP/6-311++G(d,p) empiricaldispersion=gd3bj scf=xqc pop=npa geom=check

CID_63359894_JID_4235_Energie_anion

-1 2
