%chk=JID_6749.chk
%mem=8GB
%nprocshared=4
# opt freq B3LYP/6-31G(d) empiricaldispersion=gd3bj scf=xqc

CID_80341222_JID_6749_neutraal

0 1
C         -2.53900       -0.00300       -0.12500
C         -1.01474       -0.05629       -0.18902
C         -0.44510        1.24863       -0.76123
C          1.07737        1.17455       -0.89359
N          1.43983        0.01649       -1.72661
C          0.98032       -1.26679       -1.17280
C         -0.54358       -1.24767       -1.03362
C          2.82440       -0.01484       -2.02027
N          3.68577        0.74903       -1.31617
C          4.99328        0.70328       -1.64882
C          5.50711       -0.08543       -2.66158
C          4.63313       -0.88777       -3.39741
C          3.27196       -0.82603       -3.06975
C          5.17728       -1.72700       -4.53429
C          4.34253       -2.96229       -4.88560
N          5.35838       -0.89221       -5.72252
H         -2.87180        0.83233        0.49998
H         -2.97630        0.12430       -1.12110
H         -2.94150       -0.92572        0.30595
H         -0.63559       -0.18316        0.83374
H         -0.88590        1.44515       -1.74735
H         -0.71415        2.09223       -0.11475
H          1.52627        1.10027        0.10615
H          1.42321        2.10704       -1.35787
H          1.44227       -1.45004       -0.19336
H          1.24500       -2.10734       -1.82526
H         -0.87948       -2.18699       -0.57878
H         -0.99609       -1.19473       -2.03261
H          5.64085        1.34638       -1.06043
H          6.56835       -0.05928       -2.88704
H          2.53718       -1.38162       -3.64161
H          6.16568       -2.09562       -4.23042
H          3.36764       -2.69737       -5.31001
H          4.86228       -3.58210       -5.62541
H          4.16796       -3.58213       -3.99898
H          5.63816       -1.47232       -6.51075
H          4.46150       -0.47928       -5.97732

--Link1--
%chk=JID_6749.chk
%mem=8GB
%nprocshared=4
# B3LYP/6-311++G(d,p) empiricaldispersion=gd3bj scf=xqc pop=npa geom=check

CID_80341222_JID_6749_Energie_neutraal

0 1

--Link1--
%chk=JID_6749.chk
%mem=8GB
%nprocshared=4
# B3LYP/6-311++G(d,p) empiricaldispersion=gd3bj scf=xqc pop=npa geom=check

CID_80341222_JID_6749_Energie_kation

1 2

--Link1--
%chk=JID_6749.chk
%mem=8GB
%nprocshared=4
# B3LYP/6-311++G(d,p) empiricaldispersion=gd3bj scf=xqc pop=npa geom=check

CID_80341222_JID_6749_Energie_anion

-1 2
