%chk=JID_9650.chk
%mem=8GB
%nprocshared=4
# opt freq B3LYP/6-31G(d) empiricaldispersion=gd3bj scf=xqc

CID_106419891_JID_9650_neutraal

0 1
C         -2.18800       -0.07600        0.00700
C         -0.72502        0.09112       -0.03584
N          0.00509        1.16772        0.14905
C          1.27668        0.67996       -0.00594
N          1.35314       -0.63105       -0.27070
O          0.01323       -1.02764       -0.29446
C          2.47918        1.53372        0.15241
C          3.10787        1.38751        1.53812
N          3.86333        0.11786        1.63797
S          4.70660       -0.17053        3.06424
O          3.98103        0.48258        4.13188
O          4.95032       -1.59414        3.09896
C          6.25127        0.69837        2.81425
C          6.96082        0.39753        1.49029
C          7.57255       -1.01488        1.46180
C          8.39975       -1.25698        0.20116
C          9.43251       -0.15532        0.01403
C          8.77304        1.21696        0.06316
N          8.03138        1.40837        1.31010
H         -2.55011       -0.53961       -0.91537
H         -2.47556       -0.70947        0.85120
H         -2.68411        0.89246        0.12031
H          3.21114        1.29979       -0.63019
H          2.18314        2.57997        0.00832
H          3.80244        2.21916        1.69902
H          2.33112        1.41966        2.31025
H          3.33764       -0.72131        1.36410
H          5.99664        1.76330        2.88230
H          6.88741        0.45819        3.67397
H          6.25377        0.49945        0.65849
H          6.78898       -1.77671        1.49564
H          8.20789       -1.16730        2.34398
H          8.89717       -2.23134        0.26115
H          7.73484       -1.28839       -0.67081
H         10.19484       -0.22877        0.79999
H          9.94708       -0.28725       -0.94433
H          9.54733        1.98869       -0.00810
H          8.10580        1.35239       -0.79665
H          7.62886        2.34582        1.30806

--Link1--
%chk=JID_9650.chk
%mem=8GB
%nprocshared=4
# B3LYP/6-311++G(d,p) empiricaldispersion=gd3bj scf=xqc pop=npa geom=check

CID_106419891_JID_9650_Energie_neutraal

0 1

--Link1--
%chk=JID_9650.chk
%mem=8GB
%nprocshared=4
# B3LYP/6-311++G(d,p) empiricaldispersion=gd3bj scf=xqc pop=npa geom=check

CID_106419891_JID_9650_Energie_kation

1 2

--Link1--
%chk=JID_9650.chk
%mem=8GB
%nprocshared=4
# B3LYP/6-311++G(d,p) empiricaldispersion=gd3bj scf=xqc pop=npa geom=check

CID_106419891_JID_9650_Energie_anion

-1 2
