%chk=JID_8487.chk
%mem=8GB
%nprocshared=4
# opt freq B3LYP/6-31G(d) empiricaldispersion=gd3bj scf=xqc

CID_46763043_JID_8487_neutraal

0 1
C          0.91247       -0.00933        0.04744
N          0.33067        1.27031       -0.33200
C          0.19314        1.61819       -1.77099
C          1.43766        2.34496       -2.31685
C          2.53739        1.41875       -2.82585
C          1.99937        0.40151       -3.82239
C          0.86407       -0.41803       -3.22466
C         -0.26095        0.46495       -2.68618
C          0.09614        2.18209        0.70849
O          0.40667        1.98659        1.88260
C         -0.54621        3.47703        0.41118
C          0.28316        4.60828        0.40116
C         -0.25491        5.86499        0.13181
C         -1.61980        5.99445       -0.11514
C         -2.45117        4.87068       -0.07835
C         -1.92998        3.59937        0.20347
S         -3.08647        2.23362        0.24348
C         -3.12036        1.93048        2.03124
H          0.29925       -0.82018       -0.35227
H          0.95206       -0.13948        1.13251
H          1.93154       -0.07636       -0.33592
H         -0.61714        2.35131       -1.82309
H          1.11923        2.97661       -3.15724
H          1.85902        3.02212       -1.56616
H          3.01620        0.90307       -1.98743
H          3.31973        2.01783       -3.30661
H          2.80788       -0.26638       -4.14051
H          1.64335        0.92060       -4.72083
H          1.26003       -1.06351       -2.43485
H          0.45881       -1.08915       -3.99123
H         -1.01739       -0.15181       -2.18704
H         -0.76336        0.91143       -3.55564
H          1.34670        4.50473        0.60464
H          0.38798        6.74174        0.11864
H         -2.04328        6.97356       -0.32716
H         -3.51596        4.99970       -0.26365
H         -2.16721        1.52981        2.38144
H         -3.34984        2.85182        2.57364
H         -3.90020        1.19633        2.25116

--Link1--
%chk=JID_8487.chk
%mem=8GB
%nprocshared=4
# B3LYP/6-311++G(d,p) empiricaldispersion=gd3bj scf=xqc pop=npa geom=check

CID_46763043_JID_8487_Energie_neutraal

0 1

--Link1--
%chk=JID_8487.chk
%mem=8GB
%nprocshared=4
# B3LYP/6-311++G(d,p) empiricaldispersion=gd3bj scf=xqc pop=npa geom=check

CID_46763043_JID_8487_Energie_kation

1 2

--Link1--
%chk=JID_8487.chk
%mem=8GB
%nprocshared=4
# B3LYP/6-311++G(d,p) empiricaldispersion=gd3bj scf=xqc pop=npa geom=check

CID_46763043_JID_8487_Energie_anion

-1 2
