%chk=JID_2571.chk
%mem=8GB
%nprocshared=4
# opt freq B3LYP/6-31G(d) empiricaldispersion=gd3bj scf=xqc

CID_15568694_JID_2571_neutraal

0 1
C          1.02453        0.07569        0.06058
C          0.24769        0.23202        1.35367
C          0.88143        1.28200        2.24333
O          0.74824        2.48335        1.99695
C          1.65899        0.88509        3.45511
C          2.16743       -0.41118        3.60545
C          2.87138       -0.76095        4.76035
C          3.07747        0.17830        5.77094
C          2.59197        1.48466        5.63743
C          1.89533        1.83200        4.47027
O          1.45820        3.13069        4.37362
C          2.83237        2.49632        6.72195
H          1.07600        1.02408       -0.48446
H          0.54441       -0.66484       -0.58624
H          2.05104       -0.25140        0.25547
H         -0.77594        0.56145        1.13883
H          0.14592       -0.72626        1.86939
H          2.04552       -1.16679        2.83560
H          3.26433       -1.76900        4.87407
H          3.62716       -0.11390        6.66362
H          1.11377        3.26821        3.46227
H          3.47230        3.30342        6.35124
H          1.88252        2.91562        7.06958
H          3.32868        2.04577        7.58803

--Link1--
%chk=JID_2571.chk
%mem=8GB
%nprocshared=4
# B3LYP/6-311++G(d,p) empiricaldispersion=gd3bj scf=xqc pop=npa geom=check

CID_15568694_JID_2571_Energie_neutraal

0 1

--Link1--
%chk=JID_2571.chk
%mem=8GB
%nprocshared=4
# B3LYP/6-311++G(d,p) empiricaldispersion=gd3bj scf=xqc pop=npa geom=check

CID_15568694_JID_2571_Energie_kation

1 2

--Link1--
%chk=JID_2571.chk
%mem=8GB
%nprocshared=4
# B3LYP/6-311++G(d,p) empiricaldispersion=gd3bj scf=xqc pop=npa geom=check

CID_15568694_JID_2571_Energie_anion

-1 2
