%chk=JID_6908.chk
%mem=8GB
%nprocshared=4
# opt freq B3LYP/6-31G(d) empiricaldispersion=gd3bj scf=xqc

CID_112307295_JID_6908_neutraal

0 1
C          1.00354       -0.09198       -0.03909
C          0.06734        1.01699        0.40932
C          0.58900        2.42617        0.10827
C          0.88720        2.72187       -1.36915
C         -0.27825        2.47269       -2.33230
N         -1.43829        3.29206       -2.01827
C         -2.13626        4.04481       -2.90245
O         -2.56567        5.14653       -2.56329
N         -2.29193        3.62787       -4.18373
C         -2.49897        2.33265       -4.69626
C         -2.47713        2.14295       -6.07644
N         -2.68678        0.95437       -6.69300
C         -2.95458       -0.09858       -5.89316
C         -3.02859       -0.01344       -4.51291
C         -2.80520        1.22422       -3.91022
O         -0.37688        3.37484        0.57114
H          1.10118       -0.12181       -1.12810
H          0.61699       -1.06360        0.28500
H          2.00011        0.03700        0.39478
H         -0.92383        0.87166       -0.03662
H         -0.09374        0.92797        1.49146
H          1.50738        2.60217        0.68137
H          1.18053        3.77637       -1.45709
H          1.74623        2.12456       -1.69578
H          0.05775        2.69037       -3.35173
H         -0.58101        1.42387       -2.29091
H         -1.41039        3.72062       -1.09296
H         -2.52459        4.39371       -4.80429
H         -2.26891        2.96570       -6.75478
H         -3.12349       -1.04085       -6.40667
H         -3.26990       -0.88675       -3.91725
H         -2.91069        1.30792       -2.83285
H         -0.45910        3.26222        1.53522

--Link1--
%chk=JID_6908.chk
%mem=8GB
%nprocshared=4
# B3LYP/6-311++G(d,p) empiricaldispersion=gd3bj scf=xqc pop=npa geom=check

CID_112307295_JID_6908_Energie_neutraal

0 1

--Link1--
%chk=JID_6908.chk
%mem=8GB
%nprocshared=4
# B3LYP/6-311++G(d,p) empiricaldispersion=gd3bj scf=xqc pop=npa geom=check

CID_112307295_JID_6908_Energie_kation

1 2

--Link1--
%chk=JID_6908.chk
%mem=8GB
%nprocshared=4
# B3LYP/6-311++G(d,p) empiricaldispersion=gd3bj scf=xqc pop=npa geom=check

CID_112307295_JID_6908_Energie_anion

-1 2
