%chk=JID_3235.chk
%mem=8GB
%nprocshared=4
# opt freq B3LYP/6-31G(d) empiricaldispersion=gd3bj scf=xqc

CID_137797095_JID_3235_neutraal

0 1
C          0.93668        0.07043        0.03211
C         -0.34976       -0.44461       -0.59753
C         -0.32816       -1.95288       -0.82542
O          0.67598       -2.27597       -1.78352
C          1.69175       -3.13567       -1.25566
C          2.84315       -3.20855       -2.25716
O          3.62019       -2.01400       -2.15633
C          3.87917       -1.27805       -3.36097
C          4.67378       -2.13049       -4.35671
C          2.58083       -0.73612       -3.97013
C          4.75511       -0.07220       -2.95717
O          5.17437        0.21006       -1.84476
O          5.07674        0.73454       -3.99535
H          1.12996       -0.42545        0.98860
H          0.86054        1.14660        0.21722
H          1.79741       -0.09548       -0.62255
H         -1.19597       -0.18835        0.04936
H         -0.49507        0.06891       -1.55522
H         -0.19078       -2.49166        0.11993
H         -1.28981       -2.26559       -1.24585
H          2.05220       -2.74278       -0.29811
H          1.25734       -4.12994       -1.10855
H          3.50391       -4.03986       -1.99194
H          2.45776       -3.37928       -3.26594
H          4.10016       -2.99513       -4.70473
H          4.97098       -1.55591       -5.24054
H          5.58338       -2.52250       -3.88698
H          2.02792       -0.14239       -3.23333
H          2.77289       -0.09713       -4.83878
H          1.91299       -1.53835       -4.29776
H          5.61708        1.43368       -3.56996

--Link1--
%chk=JID_3235.chk
%mem=8GB
%nprocshared=4
# B3LYP/6-311++G(d,p) empiricaldispersion=gd3bj scf=xqc pop=npa geom=check

CID_137797095_JID_3235_Energie_neutraal

0 1

--Link1--
%chk=JID_3235.chk
%mem=8GB
%nprocshared=4
# B3LYP/6-311++G(d,p) empiricaldispersion=gd3bj scf=xqc pop=npa geom=check

CID_137797095_JID_3235_Energie_kation

1 2

--Link1--
%chk=JID_3235.chk
%mem=8GB
%nprocshared=4
# B3LYP/6-311++G(d,p) empiricaldispersion=gd3bj scf=xqc pop=npa geom=check

CID_137797095_JID_3235_Energie_anion

-1 2
