%chk=JID_8935.chk
%mem=8GB
%nprocshared=4
# opt freq B3LYP/6-31G(d) empiricaldispersion=gd3bj scf=xqc

CID_114570985_JID_8935_neutraal

0 1
C         -2.72700        0.43000        0.30800
C         -1.55064        1.28100        0.77134
C         -0.30971        0.43945        1.07907
C          0.11260       -0.49550       -0.08427
C         -1.12433       -1.33306       -0.51188
C         -2.35205       -0.48609       -0.85082
C          0.60974        0.32439       -1.33717
N          1.85136        1.09477       -1.12309
C          2.91678        0.16618       -0.70723
C          2.54113       -0.65611        0.53655
N          1.25205       -1.35133        0.37012
C          1.20344       -2.73972        0.45186
N          0.34327       -3.34167        1.23616
C          0.35167       -4.71158        1.27856
C          1.17015       -5.49754        0.57141
N          2.09012       -4.94417       -0.26842
C          2.20831       -3.58204       -0.41296
O          3.01816       -3.06224       -1.16710
H         -3.55930        1.07857        0.01219
H         -3.08356       -0.17835        1.14863
H         -1.31485        2.02917        0.00597
H         -1.83973        1.84060        1.66870
H         -0.51185       -0.16863        1.97150
H          0.50375        1.11899        1.35792
H         -1.43032       -1.99984        0.30147
H         -0.87691       -1.97444       -1.36686
H         -3.19677       -1.14798       -1.07569
H         -2.17487        0.10497       -1.75557
H          0.77189       -0.36558       -2.17692
H         -0.15432        1.03325       -1.66845
H          2.12467        1.53019       -2.00354
H          3.82059        0.74623       -0.49111
H          3.15896       -0.50037       -1.54277
H          2.47548        0.00569        1.40840
H          3.34779       -1.36177        0.76708
H         -0.37744       -5.15861        1.94979
H          1.13900       -6.57957        0.63352
H          2.71417       -5.51788       -0.81922

--Link1--
%chk=JID_8935.chk
%mem=8GB
%nprocshared=4
# B3LYP/6-311++G(d,p) empiricaldispersion=gd3bj scf=xqc pop=npa geom=check

CID_114570985_JID_8935_Energie_neutraal

0 1

--Link1--
%chk=JID_8935.chk
%mem=8GB
%nprocshared=4
# B3LYP/6-311++G(d,p) empiricaldispersion=gd3bj scf=xqc pop=npa geom=check

CID_114570985_JID_8935_Energie_kation

1 2

--Link1--
%chk=JID_8935.chk
%mem=8GB
%nprocshared=4
# B3LYP/6-311++G(d,p) empiricaldispersion=gd3bj scf=xqc pop=npa geom=check

CID_114570985_JID_8935_Energie_anion

-1 2
