%chk=JID_1257.chk
%mem=8GB
%nprocshared=4
# opt freq B3LYP/6-31G(d) empiricaldispersion=gd3bj scf=xqc

CID_81034570_JID_1257_neutraal

0 1
C          0.92177        0.00195       -0.06226
N          0.12368       -1.19341        0.09229
C         -1.28908       -1.07023       -0.23917
C         -1.75892       -0.66950       -1.64878
C         -1.67651        0.82990       -1.96627
C         -1.91926        0.88380       -3.46543
C         -1.08765       -0.27815       -3.98112
C         -1.25022       -1.39315       -2.92836
C          0.01048       -2.25793       -2.87431
O         -0.04128       -3.29406       -1.89796
C         -0.90013       -4.36929       -2.25202
H          0.46053        0.86304        0.43145
H          1.10750        0.23656       -1.11333
H          1.89820       -0.15468        0.40736
H          0.52429       -1.97842       -0.42980
H         -1.73803       -2.04720       -0.01681
H         -1.74925       -0.38450        0.48455
H         -2.84141       -0.88204       -1.62756
H         -2.42653        1.40615       -1.41506
H         -0.69650        1.25449       -1.74110
H         -1.61504        1.83908       -3.90247
H         -2.98054        0.72434       -3.68928
H         -0.03898        0.03433       -4.06056
H         -1.41282       -0.60396       -4.97429
H         -2.07411       -2.03948       -3.26068
H          0.21489       -2.69822       -3.85861
H          0.88098       -1.63712       -2.63817
H         -0.78426       -5.15777       -1.50331
H         -1.94546       -4.04975       -2.24913
H         -0.62969       -4.77751       -3.23042

--Link1--
%chk=JID_1257.chk
%mem=8GB
%nprocshared=4
# B3LYP/6-311++G(d,p) empiricaldispersion=gd3bj scf=xqc pop=npa geom=check

CID_81034570_JID_1257_Energie_neutraal

0 1

--Link1--
%chk=JID_1257.chk
%mem=8GB
%nprocshared=4
# B3LYP/6-311++G(d,p) empiricaldispersion=gd3bj scf=xqc pop=npa geom=check

CID_81034570_JID_1257_Energie_kation

1 2

--Link1--
%chk=JID_1257.chk
%mem=8GB
%nprocshared=4
# B3LYP/6-311++G(d,p) empiricaldispersion=gd3bj scf=xqc pop=npa geom=check

CID_81034570_JID_1257_Energie_anion

-1 2
