%chk=JID_1740.chk
%mem=8GB
%nprocshared=4
# opt freq B3LYP/6-31G(d) empiricaldispersion=gd3bj scf=xqc

CID_101916139_JID_1740_neutraal

0 1
C          1.06093        0.07884       -0.00845
C          0.18987       -0.51529       -1.11011
C          0.93111       -1.52122       -1.99606
C          1.41676       -2.78426       -1.21020
C          0.88426       -3.93428       -2.02433
C          0.13212       -3.47354       -3.02539
N          0.09047       -2.09860       -3.05166
C         -0.59264       -1.25352       -4.03075
C         -0.15901       -1.60253       -5.45457
C         -2.10606       -1.37821       -3.86872
O          2.02986       -0.91072       -2.64247
H          1.41881       -0.68965        0.68265
H          0.48396        0.80581        0.57242
H          1.92917        0.59806       -0.42609
H         -0.69286       -0.98613       -0.66049
H         -0.17468        0.32317       -1.71478
H          2.50828       -2.82886       -1.14088
H          0.98616       -2.84169       -0.20505
H          1.06129       -4.97529       -1.80219
H         -0.40325       -4.05921       -3.76218
H         -0.32323       -0.20372       -3.86674
H         -0.45747       -2.61797       -5.73604
H         -0.61164       -0.91216       -6.17439
H          0.92904       -1.53301       -5.55949
H         -2.41213       -1.11523       -2.85042
H         -2.62628       -0.70797       -4.56105
H         -2.45137       -2.39906       -4.06533
H          2.16519       -1.49869       -3.40541

--Link1--
%chk=JID_1740.chk
%mem=8GB
%nprocshared=4
# B3LYP/6-311++G(d,p) empiricaldispersion=gd3bj scf=xqc pop=npa geom=check

CID_101916139_JID_1740_Energie_neutraal

0 1

--Link1--
%chk=JID_1740.chk
%mem=8GB
%nprocshared=4
# B3LYP/6-311++G(d,p) empiricaldispersion=gd3bj scf=xqc pop=npa geom=check

CID_101916139_JID_1740_Energie_kation

1 2

--Link1--
%chk=JID_1740.chk
%mem=8GB
%nprocshared=4
# B3LYP/6-311++G(d,p) empiricaldispersion=gd3bj scf=xqc pop=npa geom=check

CID_101916139_JID_1740_Energie_anion

-1 2
