%chk=JID_10041.chk
%mem=8GB
%nprocshared=4
# opt freq B3LYP/6-31G(d) empiricaldispersion=gd3bj scf=xqc

CID_64142766_JID_10041_neutraal

0 1
C          1.01762        0.06166        0.07673
C          0.64904        0.20781       -1.39381
C          1.24760       -0.89054       -2.27409
C          0.68137       -2.23006       -1.98523
N         -0.56057       -2.58231       -1.73957
C         -0.44236       -3.93893       -1.54267
N          0.80407       -4.41527       -1.66175
O          1.55522       -3.27785       -1.96424
C         -1.60478       -4.78430       -1.17202
S         -2.46949       -5.55512       -2.57997
C         -2.81739       -4.12428       -3.66612
C         -4.04756       -3.29941       -3.26764
C         -3.75073       -2.04943       -2.42542
C         -3.13601       -0.88685       -3.22426
O         -3.16869        0.29409       -2.90750
O         -2.51844       -1.23835       -4.36682
N         -5.00089       -1.53685       -1.84220
C         -5.57810       -1.85524       -0.65120
O         -6.60920       -1.28447       -0.30341
C         -4.92183       -2.90148        0.20430
H          0.60894       -0.85904        0.50422
H          0.61557        0.90312        0.65003
H          2.10424        0.05076        0.20884
H         -0.44301        0.22528       -1.49212
H          1.01509        1.17857       -1.74896
H          1.04397       -0.65272       -3.32480
H          2.33747       -0.90573       -2.15612
H         -1.27219       -5.59504       -0.51409
H         -2.32612       -4.20162       -0.59386
H         -1.91549       -3.52893       -3.81278
H         -3.03340       -4.57487       -4.64224
H         -4.54466       -2.97122       -4.19158
H         -4.78063       -3.94116       -2.76306
H         -3.07110       -2.28327       -1.60680
H         -2.20495       -0.38452       -4.73478
H         -5.47735       -0.78063       -2.32465
H         -4.80793       -3.83417       -0.35187
H         -3.94994       -2.54286        0.55254
H         -5.54980       -3.10044        1.07790

--Link1--
%chk=JID_10041.chk
%mem=8GB
%nprocshared=4
# B3LYP/6-311++G(d,p) empiricaldispersion=gd3bj scf=xqc pop=npa geom=check

CID_64142766_JID_10041_Energie_neutraal

0 1

--Link1--
%chk=JID_10041.chk
%mem=8GB
%nprocshared=4
# B3LYP/6-311++G(d,p) empiricaldispersion=gd3bj scf=xqc pop=npa geom=check

CID_64142766_JID_10041_Energie_kation

1 2

--Link1--
%chk=JID_10041.chk
%mem=8GB
%nprocshared=4
# B3LYP/6-311++G(d,p) empiricaldispersion=gd3bj scf=xqc pop=npa geom=check

CID_64142766_JID_10041_Energie_anion

-1 2
