%chk=JID_5930.chk
%mem=8GB
%nprocshared=4
# opt freq B3LYP/6-31G(d) empiricaldispersion=gd3bj scf=xqc

CID_60912464_JID_5930_neutraal

0 1
C         -1.94200        0.04100        0.27200
C         -1.22544       -1.22059       -0.20034
C          0.18898       -1.32537        0.35992
C          0.99782       -0.07466        0.02141
C          0.33869        1.21084        0.55933
C         -1.11481        1.31335        0.05382
N          0.48498        1.35282        2.00548
C          1.59602        1.79350        2.67227
N          1.35403        1.86335        3.96203
C          0.04932        1.44007        4.03783
N         -0.52948        1.12618        2.86609
N         -0.68103        1.34597        5.29460
O         -0.07318        1.66597        6.32862
O         -1.85932        0.95459        5.25655
O          2.33965       -0.19760        0.48676
H         -2.89617        0.13663       -0.25972
H         -2.19688       -0.06875        1.33124
H         -1.18055       -1.21944       -1.29660
H         -1.80491       -2.10397        0.09081
H          0.68504       -2.21235       -0.05239
H          0.16180       -1.47952        1.44553
H          1.06136        0.00979       -1.07139
H          0.89144        2.07135        0.15631
H         -1.08656        1.51544       -1.02525
H         -1.62656        2.16756        0.51352
H          2.52684        2.03278        2.17477
H          2.69083       -1.04967        0.16913

--Link1--
%chk=JID_5930.chk
%mem=8GB
%nprocshared=4
# B3LYP/6-311++G(d,p) empiricaldispersion=gd3bj scf=xqc pop=npa geom=check

CID_60912464_JID_5930_Energie_neutraal

0 1

--Link1--
%chk=JID_5930.chk
%mem=8GB
%nprocshared=4
# B3LYP/6-311++G(d,p) empiricaldispersion=gd3bj scf=xqc pop=npa geom=check

CID_60912464_JID_5930_Energie_kation

1 2

--Link1--
%chk=JID_5930.chk
%mem=8GB
%nprocshared=4
# B3LYP/6-311++G(d,p) empiricaldispersion=gd3bj scf=xqc pop=npa geom=check

CID_60912464_JID_5930_Energie_anion

-1 2
