%chk=JID_8006.chk
%mem=8GB
%nprocshared=4
# opt freq B3LYP/6-31G(d) empiricaldispersion=gd3bj scf=xqc

CID_152885688_JID_8006_neutraal

0 1
C          2.49200        0.00400       -0.01400
C          1.00902       -0.19511        0.14847
C          0.36499       -1.44524        0.26693
C         -1.04254       -1.48932        0.30468
C         -1.80363       -0.31882        0.26803
C         -1.18254        0.92612        0.18467
C          0.21648        0.97339        0.13333
C         -1.99935        2.19797        0.15634
C         -2.44066        2.71692       -1.24156
C         -3.34847        1.70528       -1.96180
C         -3.24193        4.01826       -1.03044
C         -1.23128        3.03672       -2.13673
N          1.06575       -2.68521        0.36187
C          2.31676       -2.92732        0.88481
C          2.53520       -4.28406        0.77523
N          1.45081       -4.89400        0.20689
C          0.59022       -3.92565       -0.01584
C          3.71380       -5.07408        1.19269
H          2.98567        0.01632        0.96179
H          2.92970       -0.76513       -0.65719
H          2.70887        0.95965       -0.50575
H         -1.58380       -2.42627        0.41488
H         -2.88816       -0.38981        0.31930
H          0.70352        1.94581        0.05869
H         -2.88818        2.04593        0.78513
H         -1.42598        2.98235        0.67061
H         -4.20312        1.42507       -1.33606
H         -3.74453        2.12571       -2.89351
H         -2.80737        0.79121       -2.22709
H         -2.63243        4.78219       -0.53453
H         -3.58394        4.43492       -1.98468
H         -4.12734        3.84140       -0.40933
H         -0.54317        3.72943       -1.63964
H         -0.67187        2.13341       -2.40121
H         -1.54964        3.50380       -3.07599
H          2.92436       -2.16030        1.33555
H         -0.37415       -4.06461       -0.48440
H          3.40542       -6.04563        1.59115
H          4.37520       -5.24577        0.33809
H          4.28219       -4.55409        1.97015

--Link1--
%chk=JID_8006.chk
%mem=8GB
%nprocshared=4
# B3LYP/6-311++G(d,p) empiricaldispersion=gd3bj scf=xqc pop=npa geom=check

CID_152885688_JID_8006_Energie_neutraal

0 1

--Link1--
%chk=JID_8006.chk
%mem=8GB
%nprocshared=4
# B3LYP/6-311++G(d,p) empiricaldispersion=gd3bj scf=xqc pop=npa geom=check

CID_152885688_JID_8006_Energie_kation

1 2

--Link1--
%chk=JID_8006.chk
%mem=8GB
%nprocshared=4
# B3LYP/6-311++G(d,p) empiricaldispersion=gd3bj scf=xqc pop=npa geom=check

CID_152885688_JID_8006_Energie_anion

-1 2
