%chk=JID_288.chk
%mem=8GB
%nprocshared=4
# opt freq B3LYP/6-31G(d) empiricaldispersion=gd3bj scf=xqc

CID_54019861_JID_288_neutraal

0 1
C          1.04701       -0.03978        0.07879
C          0.62650        0.15530       -1.34095
C          0.11046       -0.81537       -2.11306
C         -0.31937       -0.62058       -3.54567
C          0.57835       -1.44936       -4.46603
N         -1.72984       -1.00253       -3.64478
C         -2.39246       -0.53925       -4.86428
C         -2.62781       -1.63760       -5.92284
C         -3.57803       -2.73356       -5.43197
C         -3.19285       -1.00661       -7.19920
H          0.88328       -1.06612        0.42209
H          0.48074        0.63239        0.73064
H          2.11114        0.19093        0.18716
H          0.74847        1.15809       -1.74445
H         -0.01369       -1.81369       -1.69857
H         -0.20469        0.44032       -3.80310
H          0.44212       -2.52538       -4.30578
H          0.37199       -1.23355       -5.51909
H          1.63595       -1.21989       -4.29116
H         -1.82256       -2.00894       -3.53801
H         -3.36699       -0.13322       -4.56499
H         -1.84960        0.30229       -5.31276
H         -1.67206       -2.10739       -6.18153
H         -4.54043       -2.31389       -5.12018
H         -3.77072       -3.46198       -6.22731
H         -3.15677       -3.28423       -4.58583
H         -2.50852       -0.24835       -7.59440
H         -3.33553       -1.76328       -7.97798
H         -4.15952       -0.52678       -7.01132

--Link1--
%chk=JID_288.chk
%mem=8GB
%nprocshared=4
# B3LYP/6-311++G(d,p) empiricaldispersion=gd3bj scf=xqc pop=npa geom=check

CID_54019861_JID_288_Energie_neutraal

0 1

--Link1--
%chk=JID_288.chk
%mem=8GB
%nprocshared=4
# B3LYP/6-311++G(d,p) empiricaldispersion=gd3bj scf=xqc pop=npa geom=check

CID_54019861_JID_288_Energie_kation

1 2

--Link1--
%chk=JID_288.chk
%mem=8GB
%nprocshared=4
# B3LYP/6-311++G(d,p) empiricaldispersion=gd3bj scf=xqc pop=npa geom=check

CID_54019861_JID_288_Energie_anion

-1 2
