%chk=JID_7241.chk
%mem=8GB
%nprocshared=4
# opt freq B3LYP/6-31G(d) empiricaldispersion=gd3bj scf=xqc

CID_81575063_JID_7241_neutraal

0 1
C          0.93101        0.05445        0.04770
C          0.36257       -0.78967       -1.05545
C          0.57068       -2.17798       -1.09258
C         -0.11865       -2.89119       -2.07560
C         -0.88536       -2.22007       -3.02468
C         -0.95655       -0.84208       -2.95472
N         -0.36206       -0.11831       -1.98822
O         -1.78083       -0.22421       -3.86929
C         -1.54631        1.17416       -4.05108
C         -2.85122        1.98153       -3.89612
N         -3.35862        2.29465       -2.54648
C         -3.86462        1.11183       -1.84175
C         -4.54830        1.51334       -0.53235
C         -3.60820        2.31883        0.35834
C         -3.01506        3.49107       -0.41560
C         -2.38351        3.02568       -1.72921
N          1.22519       -2.88284       -0.07058
H          0.55352       -0.28081        1.01870
H          0.64471        1.10411       -0.07798
H          2.02404        0.00176        0.04274
H         -0.07348       -3.97606       -2.10373
H         -1.42600       -2.76240       -3.79121
H         -0.73351        1.59948       -3.45382
H         -1.21901        1.28137       -5.09307
H         -2.70339        2.94190       -4.40732
H         -3.64938        1.47521       -4.45435
H         -3.06294        0.40380       -1.61480
H         -4.60015        0.58857       -2.46404
H         -4.88309        0.61613        0.00043
H         -5.44387        2.10836       -0.75168
H         -4.14515        2.68333        1.24080
H         -2.79914        1.67073        0.71742
H         -3.80206        4.22640       -0.62565
H         -2.26127        3.99635        0.19883
H         -2.03066        3.91129       -2.27100
H         -1.50639        2.40945       -1.50202
H          1.55962       -3.79842       -0.35641
H          1.94679       -2.35050        0.40541

--Link1--
%chk=JID_7241.chk
%mem=8GB
%nprocshared=4
# B3LYP/6-311++G(d,p) empiricaldispersion=gd3bj scf=xqc pop=npa geom=check

CID_81575063_JID_7241_Energie_neutraal

0 1

--Link1--
%chk=JID_7241.chk
%mem=8GB
%nprocshared=4
# B3LYP/6-311++G(d,p) empiricaldispersion=gd3bj scf=xqc pop=npa geom=check

CID_81575063_JID_7241_Energie_kation

1 2

--Link1--
%chk=JID_7241.chk
%mem=8GB
%nprocshared=4
# B3LYP/6-311++G(d,p) empiricaldispersion=gd3bj scf=xqc pop=npa geom=check

CID_81575063_JID_7241_Energie_anion

-1 2
