%chk=JID_7191.chk
%mem=8GB
%nprocshared=4
# opt freq B3LYP/6-31G(d) empiricaldispersion=gd3bj scf=xqc

CID_114041906_JID_7191_neutraal

0 1
C          2.49200        0.00400       -0.01400
C          1.00510        0.05829        0.21254
C          0.19599       -1.10472        0.24598
C         -1.19673       -1.06110        0.46621
C         -1.76090        0.21510        0.63576
C         -0.98581        1.37734        0.61404
C          0.38930        1.29947        0.41030
N         -2.08843       -2.12849        0.51940
C         -2.58645       -2.61231       -0.77657
C         -3.07946       -4.02222       -0.47687
C         -2.09587       -4.50240        0.57854
C         -1.86499       -3.25854        1.45197
C         -2.86766       -3.13410        2.63041
N         -2.76713       -4.20620        3.62522
N          0.84533       -2.37404       -0.01544
O          0.73807       -2.84420       -1.15728
O          1.51052       -2.87066        0.90493
H          2.98860       -0.47424        0.83587
H          2.72418       -0.54366       -0.93286
H          2.91580        1.00815       -0.12347
H         -2.83359        0.30263        0.80260
H         -1.46081        2.34471        0.76006
H          0.97416        2.21735        0.40031
H         -1.79761       -2.64522       -1.53529
H         -3.39871       -1.97947       -1.14931
H         -4.09496       -3.99233       -0.06492
H         -3.08991       -4.65780       -1.36669
H         -2.46350       -5.37470        1.12413
H         -1.15554       -4.78952        0.09194
H         -0.85408       -3.27867        1.87028
H         -2.68819       -2.18057        3.14169
H         -3.89725       -3.09456        2.25546
H         -3.40639       -4.00392        4.39347
H         -3.08614       -5.08526        3.22129

--Link1--
%chk=JID_7191.chk
%mem=8GB
%nprocshared=4
# B3LYP/6-311++G(d,p) empiricaldispersion=gd3bj scf=xqc pop=npa geom=check

CID_114041906_JID_7191_Energie_neutraal

0 1

--Link1--
%chk=JID_7191.chk
%mem=8GB
%nprocshared=4
# B3LYP/6-311++G(d,p) empiricaldispersion=gd3bj scf=xqc pop=npa geom=check

CID_114041906_JID_7191_Energie_kation

1 2

--Link1--
%chk=JID_7191.chk
%mem=8GB
%nprocshared=4
# B3LYP/6-311++G(d,p) empiricaldispersion=gd3bj scf=xqc pop=npa geom=check

CID_114041906_JID_7191_Energie_anion

-1 2
