%chk=JID_10966.chk
%mem=8GB
%nprocshared=4
# opt freq B3LYP/6-31G(d) empiricaldispersion=gd3bj scf=xqc

CID_127851236_JID_10966_neutraal

0 1
C          1.07000       -0.06753        0.02324
N          0.55738        0.00675       -1.36447
C         -0.90001        0.26670       -1.38882
S          1.49244        1.04004       -2.36155
O          1.07045        2.39835       -2.08908
O          2.88071        0.64695       -2.25143
C          0.95648        0.59931       -3.99625
C          1.16521       -0.70682       -4.44535
C          0.73366       -1.08167       -5.72501
C          0.14209       -0.12386       -6.56909
C         -0.06790        1.18475       -6.10395
C          0.33399        1.54522       -4.81137
C         -0.80988        2.16024       -6.97016
C         -0.46529        1.92970       -8.42486
C         -0.64567        0.48352       -8.82529
O         -1.00021        0.19744       -9.97027
N         -0.27306       -0.47175       -7.88313
C         -0.15090       -1.85431       -8.33335
C         -0.13225       -2.86937       -7.20201
C          0.94268       -2.49554       -6.19487
H          0.47814       -0.78450        0.60164
H          1.01336        0.90804        0.51557
H          2.10344       -0.42568        0.03200
H         -1.13717        1.23211       -0.93198
H         -1.28847        0.23953       -2.40986
H         -1.42173       -0.51785       -0.83064
H          1.65214       -1.43056       -3.79358
H          0.16197        2.55616       -4.44682
H         -0.55639        3.19145       -6.69874
H         -1.88558        2.02463       -6.80388
H          0.57723        2.20220       -8.62976
H         -1.10779        2.55365       -9.05590
H         -0.98056       -2.08571       -9.01191
H          0.77172       -1.92144       -8.92398
H         -1.11357       -2.88851       -6.71013
H          0.05234       -3.87378       -7.59835
H          0.89505       -3.19100       -5.34883
H          1.93938       -2.57896       -6.64413

--Link1--
%chk=JID_10966.chk
%mem=8GB
%nprocshared=4
# B3LYP/6-311++G(d,p) empiricaldispersion=gd3bj scf=xqc pop=npa geom=check

CID_127851236_JID_10966_Energie_neutraal

0 1

--Link1--
%chk=JID_10966.chk
%mem=8GB
%nprocshared=4
# B3LYP/6-311++G(d,p) empiricaldispersion=gd3bj scf=xqc pop=npa geom=check

CID_127851236_JID_10966_Energie_kation

1 2

--Link1--
%chk=JID_10966.chk
%mem=8GB
%nprocshared=4
# B3LYP/6-311++G(d,p) empiricaldispersion=gd3bj scf=xqc pop=npa geom=check

CID_127851236_JID_10966_Energie_anion

-1 2
