%chk=JID_7692.chk
%mem=8GB
%nprocshared=4
# opt freq B3LYP/6-31G(d) empiricaldispersion=gd3bj scf=xqc

CID_87124386_JID_7692_neutraal

0 1
C          0.91053       -0.04410       -0.00707
C          0.06060       -1.27879       -0.31376
C         -0.16728       -2.07533        0.97511
C         -1.29805       -0.92692       -0.95076
C         -1.25174       -0.17752       -2.28228
S         -0.64142       -1.22300       -3.64712
O         -1.32503       -0.76826       -4.90351
C          1.01152       -0.46993       -3.76566
N          2.00325       -1.21764       -3.32066
N          2.84008       -1.89130       -2.93584
S          1.31067        1.18014       -4.45493
O          1.14250        2.09081       -3.27393
C          3.08241        1.08009       -4.87399
C          3.94640        2.04482       -4.05636
C          4.26212        1.56401       -2.62599
C          5.37904        0.51832       -2.62113
C          4.66952        2.74926       -1.74750
H          0.38052        0.64499        0.65910
H          1.17393        0.50092       -0.91627
H          1.84809       -0.33115        0.48131
H          0.62002       -1.92697       -0.99546
H         -0.71950       -1.48611        1.71516
H         -0.73827       -2.98774        0.77277
H          0.78713       -2.37303        1.42232
H         -1.87779       -1.85016       -1.08310
H         -1.86645       -0.31092       -0.24112
H         -2.27800        0.09459       -2.55514
H         -0.69327        0.75501       -2.20742
H          3.45989        0.05750       -4.85339
H          3.12945        1.39477       -5.92331
H          4.89230        2.19952       -4.59200
H          3.45928        3.02778       -4.02403
H          3.36945        1.11678       -2.17668
H          6.32322        0.94503       -2.97672
H          5.54433        0.13725       -1.60754
H          5.13755       -0.33382       -3.26148
H          3.86034        3.48527       -1.69034
H          4.88948        2.41905       -0.72663
H          5.55896        3.25161       -2.14231

--Link1--
%chk=JID_7692.chk
%mem=8GB
%nprocshared=4
# B3LYP/6-311++G(d,p) empiricaldispersion=gd3bj scf=xqc pop=npa geom=check

CID_87124386_JID_7692_Energie_neutraal

0 1

--Link1--
%chk=JID_7692.chk
%mem=8GB
%nprocshared=4
# B3LYP/6-311++G(d,p) empiricaldispersion=gd3bj scf=xqc pop=npa geom=check

CID_87124386_JID_7692_Energie_kation

1 2

--Link1--
%chk=JID_7692.chk
%mem=8GB
%nprocshared=4
# B3LYP/6-311++G(d,p) empiricaldispersion=gd3bj scf=xqc pop=npa geom=check

CID_87124386_JID_7692_Energie_anion

-1 2
