%chk=JID_7311.chk
%mem=8GB
%nprocshared=4
# opt freq B3LYP/6-31G(d) empiricaldispersion=gd3bj scf=xqc

CID_113481148_JID_7311_neutraal

0 1
C          1.07839        0.03206       -0.05317
C          0.10915        0.33760        1.08001
C          0.09065       -0.73667        2.17383
C          1.38405       -0.84789        2.98489
O          1.31176       -0.21083        4.26085
C          1.23821        1.21077        4.26204
C          2.49989        1.89507        3.74377
C          3.73884        1.48576        4.54507
N          4.96597        2.07835        3.99681
C          5.06825        3.46323        4.15334
C          5.12767        4.11467        5.39378
C          5.11943        5.50844        5.42171
C          5.11442        6.21609        4.22698
C          5.11007        5.49486        3.04678
N          5.08590        4.14438        2.98603
O          5.17183        3.49416        6.61496
C          6.28336        2.60242        6.72125
H          2.11777        0.05064        0.28576
H          0.97594        0.78104       -0.84516
H          0.87472       -0.95054       -0.49035
H          0.34388        1.32041        1.49849
H         -0.89985        0.41137        0.65629
H         -0.75472       -0.54554        2.84535
H         -0.10076       -1.70175        1.68784
H          1.54599       -1.90889        3.20791
H          2.27205       -0.51863        2.44006
H          0.35473        1.54458        3.71046
H          1.07479        1.51244        5.30310
H          2.65621        1.65778        2.68564
H          2.35238        2.97999        3.80019
H          3.60717        1.72793        5.60508
H          3.86391        0.39817        4.49416
H          5.00412        1.94896        2.98573
H          5.13807        6.03344        6.37196
H          5.12415        7.29984        4.21707
H          5.11927        5.99877        2.08434
H          7.15956        2.94993        6.16118
H          6.56431        2.55175        7.77789
H          6.00074        1.59375        6.40823

--Link1--
%chk=JID_7311.chk
%mem=8GB
%nprocshared=4
# B3LYP/6-311++G(d,p) empiricaldispersion=gd3bj scf=xqc pop=npa geom=check

CID_113481148_JID_7311_Energie_neutraal

0 1

--Link1--
%chk=JID_7311.chk
%mem=8GB
%nprocshared=4
# B3LYP/6-311++G(d,p) empiricaldispersion=gd3bj scf=xqc pop=npa geom=check

CID_113481148_JID_7311_Energie_kation

1 2

--Link1--
%chk=JID_7311.chk
%mem=8GB
%nprocshared=4
# B3LYP/6-311++G(d,p) empiricaldispersion=gd3bj scf=xqc pop=npa geom=check

CID_113481148_JID_7311_Energie_anion

-1 2
