%chk=JID_10625.chk
%mem=8GB
%nprocshared=4
# opt freq B3LYP/6-31G(d) empiricaldispersion=gd3bj scf=xqc

CID_119743015_JID_10625_neutraal

0 1
C          1.04624       -0.08365        0.02940
C         -0.09154        0.13144        1.03383
C          0.43037        0.98999        2.18990
C         -1.30678        0.80547        0.37029
O         -2.36836       -0.10297        0.06848
C         -2.11718       -1.09848       -0.92759
C         -1.96711       -0.49780       -2.33649
C         -3.29362        0.07254       -2.83937
N         -4.30836       -0.97487       -2.79009
C         -4.56979       -1.46024       -1.43733
C         -3.29599       -2.08863       -0.87389
C         -4.58461       -1.67896       -3.95922
O         -4.18071       -1.29788       -5.05791
C         -5.43358       -2.93612       -3.82351
C         -5.49190       -3.78175       -5.09913
C         -4.15879       -4.41871       -5.51954
C         -3.45881       -5.27504       -4.45908
C         -4.28178       -6.44399       -3.90562
C         -4.75625       -7.46585       -4.94126
N         -3.64334       -8.12722       -5.61114
H          1.40485        0.87103       -0.37136
H          0.73843       -0.70311       -0.81611
H          1.89420       -0.58348        0.51028
H         -0.38557       -0.84329        1.44169
H          0.73332        1.98402        1.84326
H         -0.34085        1.11770        2.95702
H          1.29620        0.51785        2.66642
H         -1.75033        1.52695        1.06609
H         -1.02961        1.38224       -0.51764
H         -1.21640       -1.65706       -0.65868
H         -1.20678        0.28767       -2.36090
H         -1.63333       -1.28860       -3.02058
H         -3.62808        0.90578       -2.21052
H         -3.17246        0.45911       -3.85623
H         -5.39362       -2.17701       -1.41886
H         -4.88423       -0.60426       -0.82835
H         -3.04042       -2.98251       -1.45586
H         -3.47941       -2.40223        0.16024
H         -5.06091       -3.55516       -3.00411
H         -6.45055       -2.61410       -3.56997
H         -6.23723       -4.57328       -4.95699
H         -5.85759       -3.16597       -5.93037
H         -4.33309       -5.02289       -6.41790
H         -3.46192       -3.63147       -5.83005
H         -2.52396       -5.65788       -4.88630
H         -3.15190       -4.63740       -3.62139
H         -3.67719       -6.95939       -3.14775
H         -5.15768       -6.05469       -3.37350
H         -5.35497       -8.22864       -4.43128
H         -5.40758       -6.99424       -5.68393
H         -4.00772       -8.80651       -6.27822
H         -3.12002       -7.44838       -6.16279

--Link1--
%chk=JID_10625.chk
%mem=8GB
%nprocshared=4
# B3LYP/6-311++G(d,p) empiricaldispersion=gd3bj scf=xqc pop=npa geom=check

CID_119743015_JID_10625_Energie_neutraal

0 1

--Link1--
%chk=JID_10625.chk
%mem=8GB
%nprocshared=4
# B3LYP/6-311++G(d,p) empiricaldispersion=gd3bj scf=xqc pop=npa geom=check

CID_119743015_JID_10625_Energie_kation

1 2

--Link1--
%chk=JID_10625.chk
%mem=8GB
%nprocshared=4
# B3LYP/6-311++G(d,p) empiricaldispersion=gd3bj scf=xqc pop=npa geom=check

CID_119743015_JID_10625_Energie_anion

-1 2
