%chk=JID_7253.chk
%mem=8GB
%nprocshared=4
# opt freq B3LYP/6-31G(d) empiricaldispersion=gd3bj scf=xqc

CID_107760935_JID_7253_neutraal

0 1
C          1.02820        0.04194       -0.08629
C          1.48999       -0.90698        1.00615
C          1.06265       -2.36486        0.80572
C         -0.45481       -2.59419        0.83620
C         -1.14150       -2.59268       -0.53473
S         -0.73780       -4.10042       -1.48639
C         -1.52953       -3.78041       -3.12329
C         -2.44766       -2.57112       -3.21983
C         -2.04498       -1.35031       -3.78396
C         -2.91887       -0.26063       -3.83149
C         -4.20907       -0.37289       -3.32082
C         -4.63155       -1.57702       -2.76657
C         -3.76046       -2.66681       -2.71887
C         -0.55879       -3.94639       -4.30947
O         -0.91069       -4.56762       -5.32155
N          0.69046       -3.35963       -4.33628
N          1.32798       -2.68339       -3.28987
H         -0.05717        0.17489       -0.06618
H          1.32193       -0.32073       -1.07574
H          1.48035        1.02847        0.05914
H          2.58536       -0.87512        1.05331
H          1.12616       -0.54543        1.97527
H          1.51145       -2.75858       -0.11169
H          1.50284       -2.94100        1.63006
H         -0.65819       -3.55137        1.33447
H         -0.92368       -1.82741        1.46553
H         -2.22201       -2.57050       -0.36743
H         -0.85042       -1.70877       -1.10379
H         -2.18393       -4.65835       -3.23031
H         -1.05433       -1.22225       -4.21095
H         -2.59311        0.67637       -4.27702
H         -4.88758        0.47516       -3.36340
H         -5.64091       -1.67051       -2.37388
H         -4.11309       -3.59901       -2.27948
H          1.22826       -3.56399       -5.17851
H          1.29345       -3.27771       -2.45191
H          0.80439       -1.84007       -3.04948

--Link1--
%chk=JID_7253.chk
%mem=8GB
%nprocshared=4
# B3LYP/6-311++G(d,p) empiricaldispersion=gd3bj scf=xqc pop=npa geom=check

CID_107760935_JID_7253_Energie_neutraal

0 1

--Link1--
%chk=JID_7253.chk
%mem=8GB
%nprocshared=4
# B3LYP/6-311++G(d,p) empiricaldispersion=gd3bj scf=xqc pop=npa geom=check

CID_107760935_JID_7253_Energie_kation

1 2

--Link1--
%chk=JID_7253.chk
%mem=8GB
%nprocshared=4
# B3LYP/6-311++G(d,p) empiricaldispersion=gd3bj scf=xqc pop=npa geom=check

CID_107760935_JID_7253_Energie_anion

-1 2
