%chk=JID_10635.chk
%mem=8GB
%nprocshared=4
# opt freq B3LYP/6-31G(d) empiricaldispersion=gd3bj scf=xqc

CID_116690144_JID_10635_neutraal

0 1
C          0.95048       -0.03369       -0.08008
C          0.88310       -1.24383       -1.00074
C          1.14338       -2.57792       -0.29241
C          0.18771       -2.91616        0.85595
C         -1.26102       -3.15525        0.41313
C         -1.69694       -4.62716        0.44209
C         -1.69038       -5.29001        1.82487
O         -2.41149       -4.49220        2.76086
C         -1.66292       -3.89681        3.67812
N         -0.49136       -4.27058        4.14339
C         -0.14072       -3.22545        4.95648
C         -1.13420       -2.25729        4.93966
O         -2.13722       -2.70269        4.12828
C         -1.07790       -1.04896        5.62199
C          0.08878       -0.82785        6.37275
C          1.10972       -1.79531        6.43189
C          1.00722       -3.00647        5.72733
C          0.20534        0.46922        7.08456
O         -0.62448        1.35822        7.08243
O          1.36415        0.59492        7.75404
H          0.12264       -0.02808        0.63498
H          0.88466        0.88789       -0.66743
H          1.89260       -0.01420        0.47660
H         -0.08735       -1.25821       -1.50745
H          1.63840       -1.12345       -1.78701
H          1.11279       -3.38502       -1.03454
H          2.16567       -2.56383        0.10651
H          0.58518       -3.79554        1.37323
H          0.20681       -2.10618        1.59400
H         -1.92970       -2.57171        1.05733
H         -1.42762       -2.77567       -0.60038
H         -2.72312       -4.66591        0.05455
H         -1.07665       -5.21451       -0.24485
H         -2.20922       -6.25320        1.75359
H         -0.66560       -5.52224        2.13764
H         -1.87925       -0.32203        5.55703
H          2.00622       -1.61341        7.02249
H          1.79810       -3.74801        5.76331
H          1.30840        1.48731        8.15672

--Link1--
%chk=JID_10635.chk
%mem=8GB
%nprocshared=4
# B3LYP/6-311++G(d,p) empiricaldispersion=gd3bj scf=xqc pop=npa geom=check

CID_116690144_JID_10635_Energie_neutraal

0 1

--Link1--
%chk=JID_10635.chk
%mem=8GB
%nprocshared=4
# B3LYP/6-311++G(d,p) empiricaldispersion=gd3bj scf=xqc pop=npa geom=check

CID_116690144_JID_10635_Energie_kation

1 2

--Link1--
%chk=JID_10635.chk
%mem=8GB
%nprocshared=4
# B3LYP/6-311++G(d,p) empiricaldispersion=gd3bj scf=xqc pop=npa geom=check

CID_116690144_JID_10635_Energie_anion

-1 2
