%chk=JID_10870.chk
%mem=8GB
%nprocshared=4
# opt freq B3LYP/6-31G(d) empiricaldispersion=gd3bj scf=xqc

CID_66432924_JID_10870_neutraal

0 1
C          0.98193       -0.04630       -0.08678
C          1.69250       -1.02683       -1.00809
N          2.25631       -0.44338       -2.24622
C          2.33560       -1.47770       -3.31944
C          0.92032       -1.67044       -3.93374
C          0.49290       -0.48066       -4.79617
C          1.47465       -0.24351       -5.93821
C          2.91120       -0.12090       -5.44212
C          3.29629       -1.27929       -4.52095
C          3.43772        0.45317       -2.06511
C          3.00756        1.93059       -2.22769
C          2.53822        2.67880       -0.99580
O          3.11621        2.57255        0.08643
N          1.48851        3.55777       -1.16349
C          0.95171        4.31271       -0.04534
C         -0.35537        4.88910       -0.57028
C         -0.06723        5.08604       -2.05256
C          0.78313        3.87168       -2.39770
C          4.41273        0.18998       -0.88400
N          5.12883       -1.08597       -1.03758
H          1.68263        0.56389        0.48215
H          0.37818       -0.59619        0.64372
H          0.30503        0.60699       -0.64655
H          2.44312       -1.58968       -0.44426
H          0.93258       -1.77442       -1.26084
H          2.64282       -2.42327       -2.85148
H          0.92306       -2.57738       -4.55336
H          0.15615       -1.84337       -3.16969
H          0.41419        0.42313       -4.18039
H         -0.50458       -0.66864       -5.20973
H          1.19390        0.66172       -6.48845
H          1.40929       -1.07775       -6.64781
H          3.03685        0.83695       -4.92975
H          3.58986       -0.10090       -6.30288
H          4.33778       -1.18694       -4.19573
H          3.28053       -2.20152       -5.11975
H          4.08400        0.33619       -2.93629
H          3.86836        2.50384       -2.60061
H          2.25973        1.98006       -3.02406
H          1.66800        5.10450        0.20042
H          0.81221        3.67254        0.83088
H         -1.16517        4.16009       -0.44554
H         -0.64350        5.81380       -0.06321
H         -0.97250        5.15351       -2.66195
H          0.51410        6.00469       -2.19782
H          0.16026        3.00973       -2.66031
H          1.48512        4.07667       -3.21099
H          5.16407        0.98686       -0.84608
H          3.89603        0.18777        0.07882
H          5.61429       -1.29420       -0.16645
H          4.44864       -1.83000       -1.17940

--Link1--
%chk=JID_10870.chk
%mem=8GB
%nprocshared=4
# B3LYP/6-311++G(d,p) empiricaldispersion=gd3bj scf=xqc pop=npa geom=check

CID_66432924_JID_10870_Energie_neutraal

0 1

--Link1--
%chk=JID_10870.chk
%mem=8GB
%nprocshared=4
# B3LYP/6-311++G(d,p) empiricaldispersion=gd3bj scf=xqc pop=npa geom=check

CID_66432924_JID_10870_Energie_kation

1 2

--Link1--
%chk=JID_10870.chk
%mem=8GB
%nprocshared=4
# B3LYP/6-311++G(d,p) empiricaldispersion=gd3bj scf=xqc pop=npa geom=check

CID_66432924_JID_10870_Energie_anion

-1 2
