%chk=JID_8352.chk
%mem=8GB
%nprocshared=4
# opt freq B3LYP/6-31G(d) empiricaldispersion=gd3bj scf=xqc

CID_80441745_JID_8352_neutraal

0 1
C          1.03165       -0.04864       -0.08144
C          0.31709       -1.39554       -0.19813
C          0.57917       -2.22942        1.05979
C         -1.20408       -1.24029       -0.41024
C         -1.63889       -0.45368       -1.67278
C         -1.07175       -1.02867       -2.99192
C         -1.54516       -2.39904       -3.30157
N         -2.55861       -2.78611       -4.04275
C         -2.47570       -4.15279       -3.94955
N         -1.48174       -4.60511       -3.17430
O         -0.84472       -3.43615       -2.75731
C         -3.44236       -5.05402       -4.63175
C         -2.97826       -5.62064       -5.99970
C         -1.76519       -6.55372       -5.83712
C         -4.14038       -6.43987       -6.59662
C         -2.62333       -4.49287       -6.98476
N         -3.11299       -0.35784       -1.62448
C         -3.66242        0.61500       -2.55817
H          0.59831        0.56265        0.71732
H          0.97175        0.51722       -1.01585
H          2.09453       -0.19128        0.14200
H          0.75107       -1.94262       -1.04217
H          0.18320       -1.73674        1.95431
H          0.10866       -3.21500        0.97773
H          1.65333       -2.38536        1.20630
H         -1.66038       -2.23946       -0.42661
H         -1.62348       -0.73785        0.47363
H         -1.24676        0.56556       -1.56506
H         -1.34320       -0.37119       -3.82665
H          0.02369       -1.01866       -2.96772
H         -3.68942       -5.88320       -3.95504
H         -4.37881       -4.49693       -4.77254
H         -1.97051       -7.34505       -5.10749
H         -1.51051       -7.03740       -6.78727
H         -0.87507       -6.00994       -5.50471
H         -5.02594       -5.81387       -6.75448
H         -3.86514       -6.87432       -7.56443
H         -4.42653       -7.26291       -5.93208
H         -3.45890       -3.79415       -7.10331
H         -1.75086       -3.92159       -6.64991
H         -2.38451       -4.89667       -7.97546
H         -3.52896       -1.27245       -1.81410
H         -3.51298        0.31613       -3.59954
H         -4.74100        0.70167       -2.39284
H         -3.22795        1.60738       -2.40147

--Link1--
%chk=JID_8352.chk
%mem=8GB
%nprocshared=4
# B3LYP/6-311++G(d,p) empiricaldispersion=gd3bj scf=xqc pop=npa geom=check

CID_80441745_JID_8352_Energie_neutraal

0 1

--Link1--
%chk=JID_8352.chk
%mem=8GB
%nprocshared=4
# B3LYP/6-311++G(d,p) empiricaldispersion=gd3bj scf=xqc pop=npa geom=check

CID_80441745_JID_8352_Energie_kation

1 2

--Link1--
%chk=JID_8352.chk
%mem=8GB
%nprocshared=4
# B3LYP/6-311++G(d,p) empiricaldispersion=gd3bj scf=xqc pop=npa geom=check

CID_80441745_JID_8352_Energie_anion

-1 2
