%chk=JID_9002.chk
%mem=8GB
%nprocshared=4
# opt freq B3LYP/6-31G(d) empiricaldispersion=gd3bj scf=xqc

CID_61334007_JID_9002_neutraal

0 1
C          1.07768       -0.05358        0.03310
C          0.11307        0.26803       -1.09992
C          0.86283        0.77854       -2.34260
C          0.06777        0.83692       -3.69042
C         -1.40219        1.33645       -3.49049
C         -1.56933        2.74290       -2.88267
C         -1.87587        3.82053       -3.91339
C          0.73471        1.78990       -4.73687
N          0.24382        1.93040       -5.97251
C          1.04980        2.78309       -6.65815
C          2.11604        3.29389       -5.98333
S          2.19591        2.70781       -4.42484
C          2.94797        4.21159       -6.78361
C          2.02221        4.43745       -8.02722
C          0.98256        3.26696       -8.05106
N          0.07289       -0.47646       -4.38658
C         -0.21605       -1.73853       -3.74208
C         -1.68967       -2.09433       -3.52788
C         -2.51390       -2.08514       -4.80695
H          1.76230       -0.85856       -0.25258
H          0.52498       -0.37766        0.92052
H          1.67161        0.82490        0.30473
H         -0.48161       -0.62179       -1.30744
H         -0.58638        1.03609       -0.75102
H          1.22172        1.77823       -2.06923
H          1.77198        0.17954       -2.49476
H         -1.95423        1.28566       -4.43893
H         -1.92233        0.64819       -2.81817
H         -2.41668        2.71172       -2.18583
H         -0.69804        3.04002       -2.29196
H         -2.75868        3.55918       -4.50554
H         -2.08032        4.77123       -3.41009
H         -1.03888        3.98369       -4.59505
H          3.88446        3.73238       -7.08574
H          3.16352        5.15606       -6.27688
H          1.48473        5.38694       -7.90280
H          2.59165        4.50378       -8.95970
H         -0.01188        3.62322       -8.33137
H          1.30238        2.48470       -8.74675
H         -0.41335       -0.37533       -5.27947
H          0.20249       -2.51431       -4.39709
H          0.34713       -1.85746       -2.81271
H         -1.73441       -3.10396       -3.10043
H         -2.15376       -1.43735       -2.78857
H         -2.07148       -2.74063       -5.56371
H         -3.52817       -2.44241       -4.60177
H         -2.59582       -1.07812       -5.22584

--Link1--
%chk=JID_9002.chk
%mem=8GB
%nprocshared=4
# B3LYP/6-311++G(d,p) empiricaldispersion=gd3bj scf=xqc pop=npa geom=check

CID_61334007_JID_9002_Energie_neutraal

0 1

--Link1--
%chk=JID_9002.chk
%mem=8GB
%nprocshared=4
# B3LYP/6-311++G(d,p) empiricaldispersion=gd3bj scf=xqc pop=npa geom=check

CID_61334007_JID_9002_Energie_kation

1 2

--Link1--
%chk=JID_9002.chk
%mem=8GB
%nprocshared=4
# B3LYP/6-311++G(d,p) empiricaldispersion=gd3bj scf=xqc pop=npa geom=check

CID_61334007_JID_9002_Energie_anion

-1 2
