%chk=JID_10143.chk
%mem=8GB
%nprocshared=4
# opt freq B3LYP/6-31G(d) empiricaldispersion=gd3bj scf=xqc

CID_115652793_JID_10143_neutraal

0 1
C          1.05182        0.06354        0.05725
S          0.53967       -0.64011        1.60198
O          1.30161       -0.00778        2.66226
O         -0.91060       -0.64848        1.63125
C          1.09152       -2.32464        1.48529
C          0.18990       -3.32973        1.13091
C          0.62937       -4.65325        1.06985
C          1.96369       -4.97781        1.36270
C          2.85128       -3.95554        1.73387
C          2.41815       -2.63052        1.79859
C          2.42032       -6.41977        1.34786
N          1.96233       -7.10141        2.55401
C          2.51205       -8.44987        2.68620
C          3.95224       -8.48009        3.07770
C          4.77272       -7.64532        3.81445
C          6.05178       -8.25622        3.84522
C          5.92834       -9.42872        3.13716
O          4.66187       -9.57266        2.66246
C          6.86238      -10.45753        2.84710
N          7.64310      -11.28710        2.62366
H          0.74140        1.11058        0.04258
H          0.56881       -0.47767       -0.75856
H          2.13849       -0.00131       -0.02334
H         -0.85237       -3.10028        0.91960
H         -0.07767       -5.44149        0.81579
H          3.88278       -4.18976        1.98909
H          3.11202       -1.85185        2.10812
H          2.01498       -6.91108        0.45462
H          3.51255       -6.44502        1.25391
H          2.19214       -6.54937        3.37693
H          1.94291       -8.97018        3.46541
H          2.35343       -9.01630        1.76060
H          4.48345       -6.71084        4.27593
H          6.94607       -7.89101        4.33178

--Link1--
%chk=JID_10143.chk
%mem=8GB
%nprocshared=4
# B3LYP/6-311++G(d,p) empiricaldispersion=gd3bj scf=xqc pop=npa geom=check

CID_115652793_JID_10143_Energie_neutraal

0 1

--Link1--
%chk=JID_10143.chk
%mem=8GB
%nprocshared=4
# B3LYP/6-311++G(d,p) empiricaldispersion=gd3bj scf=xqc pop=npa geom=check

CID_115652793_JID_10143_Energie_kation

1 2

--Link1--
%chk=JID_10143.chk
%mem=8GB
%nprocshared=4
# B3LYP/6-311++G(d,p) empiricaldispersion=gd3bj scf=xqc pop=npa geom=check

CID_115652793_JID_10143_Energie_anion

-1 2
