%chk=JID_4254.chk
%mem=8GB
%nprocshared=4
# opt freq B3LYP/6-31G(d) empiricaldispersion=gd3bj scf=xqc

CID_21749620_JID_4254_neutraal

0 1
C          1.34400       -0.22500        0.03600
C          0.92472        1.01203       -0.44570
C         -0.43793        1.30728       -0.52955
C         -1.39834        0.37387       -0.11975
C         -0.96087       -0.86601        0.37024
C          0.40108       -1.16488        0.44339
C         -2.87768        0.66344       -0.21320
C         -3.40888        1.58767        0.88686
C         -3.21180        3.08384        0.65705
S         -4.18146        3.77588       -0.68420
O         -5.23264        2.84058       -1.04018
O         -4.52211        5.14071       -0.31508
C         -3.03177        3.88999       -2.08849
N         -1.82506        4.72780       -1.91863
H          2.40415       -0.45626        0.09462
H          1.65902        1.74860       -0.76189
H         -0.72901        2.27456       -0.92648
H         -1.68049       -1.61656        0.69099
H          0.72480       -2.13314        0.81626
H         -3.11477        1.03516       -1.21336
H         -3.41837       -0.28955       -0.13457
H         -4.48274        1.39582        1.00593
H         -2.94606        1.31850        1.84503
H         -3.55515        3.61223        1.55520
H         -2.16639        3.36212        0.51711
H         -2.73634        2.87399       -2.35658
H         -3.62652        4.29298       -2.91553
H         -1.38432        4.85104       -2.83043
H         -2.13917        5.66210       -1.63770

--Link1--
%chk=JID_4254.chk
%mem=8GB
%nprocshared=4
# B3LYP/6-311++G(d,p) empiricaldispersion=gd3bj scf=xqc pop=npa geom=check

CID_21749620_JID_4254_Energie_neutraal

0 1

--Link1--
%chk=JID_4254.chk
%mem=8GB
%nprocshared=4
# B3LYP/6-311++G(d,p) empiricaldispersion=gd3bj scf=xqc pop=npa geom=check

CID_21749620_JID_4254_Energie_kation

1 2

--Link1--
%chk=JID_4254.chk
%mem=8GB
%nprocshared=4
# B3LYP/6-311++G(d,p) empiricaldispersion=gd3bj scf=xqc pop=npa geom=check

CID_21749620_JID_4254_Energie_anion

-1 2
