%chk=JID_6186.chk
%mem=8GB
%nprocshared=4
# opt freq B3LYP/6-31G(d) empiricaldispersion=gd3bj scf=xqc

CID_82285171_JID_6186_neutraal

0 1
C          1.01521        0.09054        0.03965
O          0.06836        0.70699        0.90313
C          0.55467        1.60937        1.80791
C         -0.36696        2.03016        2.76763
C          0.00308        2.93877        3.76319
C          1.30823        3.44787        3.80399
C          2.22892        3.04175        2.82902
C          1.85038        2.12557        1.83651
N          1.67409        4.35290        4.84065
C          2.89215        4.97059        5.04431
C          2.79370        5.71605        6.20134
C          1.47047        5.49688        6.62881
N          0.78564        4.70419        5.80650
C          3.84191        6.54526        6.86393
C          3.79102        8.03056        6.47922
N          2.61256        8.71761        7.01107
H          0.48789       -0.66638       -0.54893
H          1.80125       -0.41737        0.60856
H          1.44040        0.81867       -0.65868
H         -1.38183        1.63994        2.74892
H         -0.73902        3.23533        4.50240
H          3.25045        3.40805        2.81275
H          2.59289        1.83709        1.09957
H          3.72446        4.82767        4.37320
H          0.97569        5.89251        7.50774
H          3.76065        6.43853        7.95325
H          4.82925        6.15044        6.59161
H          4.68180        8.52653        6.88033
H          3.81456        8.14580        5.38951
H          2.64561        9.69948        6.73757
H          1.77516        8.33812        6.56693

--Link1--
%chk=JID_6186.chk
%mem=8GB
%nprocshared=4
# B3LYP/6-311++G(d,p) empiricaldispersion=gd3bj scf=xqc pop=npa geom=check

CID_82285171_JID_6186_Energie_neutraal

0 1

--Link1--
%chk=JID_6186.chk
%mem=8GB
%nprocshared=4
# B3LYP/6-311++G(d,p) empiricaldispersion=gd3bj scf=xqc pop=npa geom=check

CID_82285171_JID_6186_Energie_kation

1 2

--Link1--
%chk=JID_6186.chk
%mem=8GB
%nprocshared=4
# B3LYP/6-311++G(d,p) empiricaldispersion=gd3bj scf=xqc pop=npa geom=check

CID_82285171_JID_6186_Energie_anion

-1 2
