%chk=JID_7141.chk
%mem=8GB
%nprocshared=4
# opt freq B3LYP/6-31G(d) empiricaldispersion=gd3bj scf=xqc

CID_113848992_JID_7141_neutraal

0 1
C          1.05156       -0.03656        0.07749
C          0.60235       -0.30974        1.50687
C         -0.01917        0.92307        2.20446
C         -1.27931        1.48292        1.50969
C         -2.42712        0.49407        1.35610
N         -0.25170        0.71483        3.63881
C         -0.59567       -0.47616        4.22902
C         -0.66523       -0.20948        5.57105
N         -0.39539        1.10614        5.81135
C         -0.16516        1.67083        4.64359
N          0.09161        2.97198        4.36133
C          0.21644        4.05114        5.26504
C          0.24593        5.35829        4.74586
C          0.35211        6.47392        5.58297
C          0.43296        6.30335        6.96074
C          0.40768        5.01956        7.49612
C          0.29914        3.90648        6.65430
H          0.20141        0.17743       -0.57657
H          1.56750       -0.91331       -0.32715
H          1.74315        0.81080        0.03788
H         -0.09639       -1.15357        1.49717
H          1.47729       -0.64159        2.08111
H          0.75157        1.70414        2.15593
H         -1.65142        2.35294        2.06500
H         -1.00832        1.85789        0.51569
H         -2.77020        0.12219        2.32553
H         -3.27708        0.98603        0.87153
H         -2.14408       -0.35963        0.73420
H         -0.75482       -1.38929        3.67491
H         -0.90054       -0.89283        6.37615
H          0.12282        3.27943        3.40025
H          0.17743        5.52531        3.67428
H          0.36770        7.47345        5.15728
H          0.51372        7.16581        7.61638
H          0.47033        4.87398        8.57128
H          0.28838        2.92197        7.11280

--Link1--
%chk=JID_7141.chk
%mem=8GB
%nprocshared=4
# B3LYP/6-311++G(d,p) empiricaldispersion=gd3bj scf=xqc pop=npa geom=check

CID_113848992_JID_7141_Energie_neutraal

0 1

--Link1--
%chk=JID_7141.chk
%mem=8GB
%nprocshared=4
# B3LYP/6-311++G(d,p) empiricaldispersion=gd3bj scf=xqc pop=npa geom=check

CID_113848992_JID_7141_Energie_kation

1 2

--Link1--
%chk=JID_7141.chk
%mem=8GB
%nprocshared=4
# B3LYP/6-311++G(d,p) empiricaldispersion=gd3bj scf=xqc pop=npa geom=check

CID_113848992_JID_7141_Energie_anion

-1 2
