%chk=JID_7586.chk
%mem=8GB
%nprocshared=4
# opt freq B3LYP/6-31G(d) empiricaldispersion=gd3bj scf=xqc

CID_80322875_JID_7586_neutraal

0 1
C          0.92808        0.04104       -0.05606
C          0.49739        0.51372        1.33337
C          0.93040        1.93709        1.70026
N          0.72387        2.48725        2.86807
O          0.07364        1.61686        3.74370
N          1.61506        2.70837        0.78973
C         -0.98061        0.17545        1.53889
O         -1.25642       -0.85873        2.16120
N         -1.98183        0.92598        0.91811
C         -1.75810        2.25663        0.36998
C         -3.38404        0.57213        1.20876
C         -4.25169        0.33402       -0.04016
O         -4.14470       -0.97940       -0.59165
C         -2.87023       -1.26371       -1.15758
C         -3.04378       -2.36732       -2.15199
C         -3.50652       -2.06888       -3.55524
C         -2.09088       -2.51555       -3.31059
H          0.52718        0.67261       -0.85423
H          0.58246       -0.98157       -0.24550
H          2.01954        0.04183       -0.14753
H          1.04221       -0.12015        2.05030
H         -0.00728        2.14836        4.55709
H          2.25896        2.22462        0.17530
H          2.04572        3.51325        1.23696
H         -2.59125        2.55523       -0.27020
H         -1.67633        2.96787        1.19656
H         -0.85424        2.28435       -0.23604
H         -3.43873       -0.31643        1.84529
H         -3.79712        1.40853        1.78563
H         -5.30054        0.43840        0.25957
H         -4.07826        1.07268       -0.82897
H         -2.44991       -0.37338       -1.64010
H         -2.19244       -1.60007       -0.36856
H         -3.41443       -3.27121       -1.68132
H         -4.19256       -2.77022       -4.01643
H         -3.67901       -1.03511       -3.83132
H         -1.30047       -1.78438       -3.43320
H         -1.81671       -3.52004       -3.61281

--Link1--
%chk=JID_7586.chk
%mem=8GB
%nprocshared=4
# B3LYP/6-311++G(d,p) empiricaldispersion=gd3bj scf=xqc pop=npa geom=check

CID_80322875_JID_7586_Energie_neutraal

0 1

--Link1--
%chk=JID_7586.chk
%mem=8GB
%nprocshared=4
# B3LYP/6-311++G(d,p) empiricaldispersion=gd3bj scf=xqc pop=npa geom=check

CID_80322875_JID_7586_Energie_kation

1 2

--Link1--
%chk=JID_7586.chk
%mem=8GB
%nprocshared=4
# B3LYP/6-311++G(d,p) empiricaldispersion=gd3bj scf=xqc pop=npa geom=check

CID_80322875_JID_7586_Energie_anion

-1 2
