%chk=JID_8739.chk
%mem=8GB
%nprocshared=4
# opt freq B3LYP/6-31G(d) empiricaldispersion=gd3bj scf=xqc

CID_103761357_JID_8739_neutraal

0 1
C          0.93365        0.06149       -0.04262
C          1.08844        1.56965        0.07047
C          1.52067        2.23315       -1.23725
C          0.46902        2.24851       -2.34070
C          1.01778        2.28636       -3.76070
C          0.34658        1.04501       -3.26388
C         -0.74983        3.11924       -2.07200
N         -1.77940        2.33752       -1.39077
C         -2.97037        3.15576       -1.08171
C         -3.89004        3.38557       -2.28028
C         -3.75643        2.58126        0.11649
O         -3.94478        3.26982        1.12667
N         -4.34934        1.35448        0.09301
C         -4.16413        0.22738       -0.79722
C         -3.11913       -0.75991       -0.27337
C         -3.46333       -1.42562        1.07465
C         -4.75423       -2.24292        1.01274
C         -2.30531       -2.32486        1.51643
H          0.12711       -0.21049       -0.72756
H          0.69815       -0.36578        0.93713
H          1.85890       -0.40261       -0.39862
H          0.16042        2.00899        0.44879
H          1.85641        1.77436        0.82666
H          1.80162        3.27246       -1.02378
H          2.43683        1.74362       -1.59292
H          0.50238        2.87186       -4.51434
H          2.09233        2.25575       -3.90864
H          0.97046        0.17834       -3.07462
H         -0.62185        0.79730       -3.68232
H         -0.44965        3.97948       -1.46201
H         -1.14126        3.51347       -3.01664
H         -2.03793        1.55510       -1.98313
H         -2.63036        4.14067       -0.73111
H         -4.17746        2.45440       -2.77559
H         -4.81412        3.88423       -1.96708
H         -3.40891        4.02203       -3.02996
H         -4.82665        1.16749        0.96686
H         -5.13891       -0.25612       -0.90987
H         -3.87011        0.57225       -1.78810
H         -2.96751       -1.53765       -1.03262
H         -2.16324       -0.23585       -0.16556
H         -3.58572       -0.64812        1.83852
H         -4.71263       -2.99138        0.21432
H         -4.92738       -2.76785        1.95853
H         -5.62371       -1.60265        0.83695
H         -1.37980       -1.74812        1.61292
H         -2.51513       -2.78016        2.49017
H         -2.12990       -3.13104        0.79598

--Link1--
%chk=JID_8739.chk
%mem=8GB
%nprocshared=4
# B3LYP/6-311++G(d,p) empiricaldispersion=gd3bj scf=xqc pop=npa geom=check

CID_103761357_JID_8739_Energie_neutraal

0 1

--Link1--
%chk=JID_8739.chk
%mem=8GB
%nprocshared=4
# B3LYP/6-311++G(d,p) empiricaldispersion=gd3bj scf=xqc pop=npa geom=check

CID_103761357_JID_8739_Energie_kation

1 2

--Link1--
%chk=JID_8739.chk
%mem=8GB
%nprocshared=4
# B3LYP/6-311++G(d,p) empiricaldispersion=gd3bj scf=xqc pop=npa geom=check

CID_103761357_JID_8739_Energie_anion

-1 2
