%chk=JID_10365.chk
%mem=8GB
%nprocshared=4
# opt freq B3LYP/6-31G(d) empiricaldispersion=gd3bj scf=xqc

CID_19797967_JID_10365_neutraal

0 1
C          1.04760       -0.03567        0.08038
C          0.67957       -0.02301       -1.37396
O          0.97596       -0.90921       -2.16431
O          0.00990        1.16102       -1.65139
C         -0.43057        1.25068       -2.97707
C          0.35882        1.99287       -3.86017
C         -0.05688        2.15868       -5.17895
C         -1.26207        1.60042       -5.60285
C         -2.05612        0.87471       -4.70826
C         -1.65313        0.68384       -3.37603
C         -2.52621       -0.06010       -2.42772
C         -2.92096       -1.29762       -2.78508
C         -2.97918        0.47757       -1.11646
C         -2.90140       -0.30592        0.05367
C         -3.30447        0.32365        1.18587
C         -3.74837        1.60112        1.23785
C         -3.85033        2.42054        0.16407
C         -3.44814        1.83255       -1.04571
C         -3.93714        1.48498        2.66391
C         -3.48593        0.19440        2.61188
H          1.38693       -1.03751        0.35848
H          0.17488        0.20743        0.69168
H          1.85272        0.68001        0.26239
H          1.29240        2.43326       -3.52344
H          0.55568        2.72509       -5.87558
H         -1.58967        1.73329       -6.63108
H         -3.00144        0.46623       -5.05926
H         -3.57322       -1.90197       -2.16229
H         -2.59935       -1.75578       -3.71648
H         -2.53408       -1.32282        0.05876
H         -4.20391        3.43963        0.22568
H         -3.49583        2.42997       -1.95539
H         -4.28765        2.14511        3.44936
H         -3.33052       -0.59472        3.33906

--Link1--
%chk=JID_10365.chk
%mem=8GB
%nprocshared=4
# B3LYP/6-311++G(d,p) empiricaldispersion=gd3bj scf=xqc pop=npa geom=check

CID_19797967_JID_10365_Energie_neutraal

0 1

--Link1--
%chk=JID_10365.chk
%mem=8GB
%nprocshared=4
# B3LYP/6-311++G(d,p) empiricaldispersion=gd3bj scf=xqc pop=npa geom=check

CID_19797967_JID_10365_Energie_kation

1 2

--Link1--
%chk=JID_10365.chk
%mem=8GB
%nprocshared=4
# B3LYP/6-311++G(d,p) empiricaldispersion=gd3bj scf=xqc pop=npa geom=check

CID_19797967_JID_10365_Energie_anion

-1 2
