%chk=JID_4552.chk
%mem=8GB
%nprocshared=4
# opt freq B3LYP/6-31G(d) empiricaldispersion=gd3bj scf=xqc

CID_131396298_JID_4552_neutraal

0 1
C          1.02005        0.08811       -0.04283
C          0.45917        1.39315        0.53224
C          0.88380        2.58866       -0.31455
C          1.48950        3.69506        0.30585
C          1.88374        4.80882       -0.43960
C          1.67343        4.82053       -1.81292
C          1.07450        3.74073       -2.44855
C          0.67662        2.62912       -1.70239
O          2.04163        5.88655       -2.57928
C         -1.08476        1.29674        0.69256
C         -1.51329       -0.00636        1.38712
C         -1.00663       -0.10083        2.81707
N         -0.58631       -0.17920        4.00334
N         -1.64330        2.48739        1.35734
H          0.48175       -0.23218       -0.94170
H          0.98502       -0.72718        0.68642
H          2.07530        0.20681       -0.31738
H          0.91229        1.51260        1.52643
H          1.65055        3.70000        1.38170
H          2.34507        5.64953        0.06826
H          0.91262        3.76573       -3.52206
H          0.20038        1.80037       -2.21924
H          2.41867        6.56596       -1.99673
H         -1.53265        1.27505       -0.30987
H         -2.61013       -0.04709        1.42567
H         -1.20898       -0.89584        0.82689
H         -2.64594        2.39367        1.51077
H         -1.21156        2.63857        2.26959

--Link1--
%chk=JID_4552.chk
%mem=8GB
%nprocshared=4
# B3LYP/6-311++G(d,p) empiricaldispersion=gd3bj scf=xqc pop=npa geom=check

CID_131396298_JID_4552_Energie_neutraal

0 1

--Link1--
%chk=JID_4552.chk
%mem=8GB
%nprocshared=4
# B3LYP/6-311++G(d,p) empiricaldispersion=gd3bj scf=xqc pop=npa geom=check

CID_131396298_JID_4552_Energie_kation

1 2

--Link1--
%chk=JID_4552.chk
%mem=8GB
%nprocshared=4
# B3LYP/6-311++G(d,p) empiricaldispersion=gd3bj scf=xqc pop=npa geom=check

CID_131396298_JID_4552_Energie_anion

-1 2
