%chk=JID_9838.chk
%mem=8GB
%nprocshared=4
# opt freq B3LYP/6-31G(d) empiricaldispersion=gd3bj scf=xqc

CID_116979311_JID_9838_neutraal

0 1
C         -0.29100        1.24400        0.16300
C          1.17837        1.52393        0.49244
C          1.91804        0.29857        1.06685
C          1.73961       -0.88731        0.09584
C          0.26865       -1.19399       -0.18576
C         -0.44425        0.03274       -0.76025
N         -1.86308       -0.24722       -0.97539
N          1.53385       -0.04154        2.44511
C          1.01698        0.93493        3.39823
C          0.94139        0.16723        4.72410
N          1.84339       -0.92708        4.49995
C          2.18408       -1.05723        3.16670
O          2.93912       -1.91368        2.74258
C         -0.45277       -0.30420        5.08131
C         -1.09666        0.22281        6.21240
C         -2.38963       -0.18225        6.55133
C         -3.05724       -1.11834        5.76525
C         -2.43357       -1.65072        4.63983
C         -1.14164       -1.24608        4.29890
H         -0.72488        2.13289       -0.31207
H         -0.85541        1.08072        1.08824
H          1.24710        2.38146        1.17074
H          1.68445        1.83117       -0.43265
H          2.98814        0.53911        1.11473
H          2.22842       -1.79376        0.46270
H          2.23534       -0.64231       -0.85298
H         -0.22070       -1.52673        0.73854
H          0.20641       -2.02884       -0.89479
H         -0.00002        0.27682       -1.73328
H         -1.96088       -1.07127       -1.56819
H         -2.30353       -0.49088       -0.08824
H          0.05888        1.34907        3.07810
H          1.75883        1.73904        3.47433
H          1.35075        0.77449        5.53950
H          2.13493       -1.61062        5.18361
H         -0.59670        0.95509        6.84297
H         -2.87625        0.23238        7.43059
H         -4.06260       -1.43477        6.03058
H         -2.95109       -2.38426        4.02687
H         -0.67365       -1.67798        3.41622

--Link1--
%chk=JID_9838.chk
%mem=8GB
%nprocshared=4
# B3LYP/6-311++G(d,p) empiricaldispersion=gd3bj scf=xqc pop=npa geom=check

CID_116979311_JID_9838_Energie_neutraal

0 1

--Link1--
%chk=JID_9838.chk
%mem=8GB
%nprocshared=4
# B3LYP/6-311++G(d,p) empiricaldispersion=gd3bj scf=xqc pop=npa geom=check

CID_116979311_JID_9838_Energie_kation

1 2

--Link1--
%chk=JID_9838.chk
%mem=8GB
%nprocshared=4
# B3LYP/6-311++G(d,p) empiricaldispersion=gd3bj scf=xqc pop=npa geom=check

CID_116979311_JID_9838_Energie_anion

-1 2
