%chk=JID_8736.chk
%mem=8GB
%nprocshared=4
# opt freq B3LYP/6-31G(d) empiricaldispersion=gd3bj scf=xqc

CID_84320724_JID_8736_neutraal

0 1
C          1.05350       -0.07045        0.04663
S         -0.13485       -1.38755       -0.05312
O         -0.26940       -1.92975        1.28612
O         -1.29331       -0.87826       -0.76087
C          0.62233       -2.65882       -1.06002
C          0.95862       -2.23526       -2.48734
C          2.41765       -1.83352       -2.71853
C          3.35494       -3.02681       -2.68201
O          3.41722       -3.81329       -3.62604
N          4.09981       -3.27328       -1.56766
C          4.33279       -2.41335       -0.41932
C          4.58793       -3.20245        0.86652
C          6.02356       -3.63619        1.01342
C          6.43069       -4.92084        0.63467
C          7.76388       -5.30766        0.78147
C          8.69886       -4.41595        1.30531
C          8.30400       -3.13435        1.68133
C          6.97323       -2.74475        1.53441
H          0.62071        0.71950        0.66547
H          1.24603        0.32058       -0.95230
H          1.96163       -0.43992        0.51973
H          1.48019       -3.05228       -0.51181
H         -0.12998       -3.45650       -1.09599
H          0.73395       -3.08166       -3.14953
H          0.30969       -1.41331       -2.80971
H          2.50796       -1.40707       -3.72635
H          2.73890       -1.04052       -2.04370
H          4.74927       -4.04132       -1.70786
H          5.16144       -1.74292       -0.67130
H          3.44958       -1.79788       -0.26363
H          4.33515       -2.57061        1.72799
H          3.92081       -4.07178        0.92673
H          5.71382       -5.63386        0.23356
H          8.07380       -6.30868        0.49222
H          9.73508       -4.72148        1.42420
H          9.03126       -2.43980        2.09378
H          6.68044       -1.74240        1.83935

--Link1--
%chk=JID_8736.chk
%mem=8GB
%nprocshared=4
# B3LYP/6-311++G(d,p) empiricaldispersion=gd3bj scf=xqc pop=npa geom=check

CID_84320724_JID_8736_Energie_neutraal

0 1

--Link1--
%chk=JID_8736.chk
%mem=8GB
%nprocshared=4
# B3LYP/6-311++G(d,p) empiricaldispersion=gd3bj scf=xqc pop=npa geom=check

CID_84320724_JID_8736_Energie_kation

1 2

--Link1--
%chk=JID_8736.chk
%mem=8GB
%nprocshared=4
# B3LYP/6-311++G(d,p) empiricaldispersion=gd3bj scf=xqc pop=npa geom=check

CID_84320724_JID_8736_Energie_anion

-1 2
