%chk=JID_1792.chk
%mem=8GB
%nprocshared=4
# opt freq B3LYP/6-31G(d) empiricaldispersion=gd3bj scf=xqc

CID_88647256_JID_1792_neutraal

0 1
C          0.94838       -0.06602        0.05456
C          1.13748       -0.53054        1.48076
C         -1.19238        3.75443       -0.82950
C         -1.73837        2.66392       -1.74948
C         -0.69228        2.20715       -2.81241
C         -1.12288        0.88663       -3.51033
O         -2.48151        0.89949       -3.94338
N         -0.32803        3.33380       -3.71749
C          0.98637        3.13665       -4.33052
C         -1.32743        3.59834       -4.75453
O         -2.13948        1.54591       -0.94594
H          1.00962        1.02450       -0.00364
H         -0.02879       -0.37894       -0.32424
H          1.72051       -0.48960       -0.59447
H          2.11653       -0.22161        1.85895
H          0.36706       -0.10282        2.12926
H          1.07288       -1.62098        1.54178
H         -1.93932        4.02943       -0.07671
H         -0.31373        3.39743       -0.28128
H         -0.91947        4.65697       -1.38364
H         -2.64616        3.03429       -2.23752
H          0.21435        1.94810       -2.24722
H         -0.49237        0.66951       -4.37772
H         -1.00143        0.04120       -2.82296
H         -3.01443        0.83498       -3.12870
H          1.01596        2.27076       -5.00003
H          1.27470        4.02238       -4.90809
H          1.75673        3.00679       -3.56229
H         -1.39769        2.79085       -5.49116
H         -2.31916        3.76864       -4.32502
H         -1.06997        4.51698       -5.29457
H         -2.70152        1.89145       -0.22973

--Link1--
%chk=JID_1792.chk
%mem=8GB
%nprocshared=4
# B3LYP/6-311++G(d,p) empiricaldispersion=gd3bj scf=xqc pop=npa geom=check

CID_88647256_JID_1792_Energie_neutraal

0 1

--Link1--
%chk=JID_1792.chk
%mem=8GB
%nprocshared=4
# B3LYP/6-311++G(d,p) empiricaldispersion=gd3bj scf=xqc pop=npa geom=check

CID_88647256_JID_1792_Energie_kation

1 2

--Link1--
%chk=JID_1792.chk
%mem=8GB
%nprocshared=4
# B3LYP/6-311++G(d,p) empiricaldispersion=gd3bj scf=xqc pop=npa geom=check

CID_88647256_JID_1792_Energie_anion

-1 2
