%chk=JID_8495.chk
%mem=8GB
%nprocshared=4
# opt freq B3LYP/6-31G(d) empiricaldispersion=gd3bj scf=xqc

CID_80919817_JID_8495_neutraal

0 1
C          1.04920        0.05850        0.06448
C          0.77496        1.50107        0.33431
C         -0.31346        1.93334        1.08194
N         -0.53302        3.23770        1.36256
C          0.34154        4.12888        0.87227
N          1.41847        3.81895        0.14442
C          1.62855        2.50999       -0.07321
O          2.72269        2.25666       -0.85406
C          3.87844        1.79815       -0.13613
C          4.17130        2.43662        1.23883
N          3.49197        1.73248        2.33654
C          3.45819        2.51947        3.56859
C          3.01083        1.49579        4.59908
C          3.52078        0.15862        4.07315
C          4.12950        0.46929        2.71262
C          0.08810        5.57338        1.16625
N         -1.23525        0.97739        1.60776
N         -2.30792        1.50021        2.38580
H          1.69869       -0.07597       -0.80620
H          0.13032       -0.48894       -0.16727
H          1.52740       -0.40533        0.93232
H          3.85549        0.70413       -0.08605
H          4.72656        2.03797       -0.78920
H          5.25483        2.43003        1.41402
H          3.86473        3.48895        1.21736
H          2.75679        3.35737        3.50564
H          4.45117        2.90775        3.82823
H          3.40475        1.72076        5.59499
H          1.91648        1.47096        4.66746
H          4.26303       -0.28186        4.74694
H          2.68859       -0.54862        3.98002
H          5.21688        0.57786        2.81387
H          3.92764       -0.33381        1.99769
H         -0.90612        5.85853        0.80941
H          0.14168        5.74815        2.24484
H          0.82813        6.21163        0.67369
H         -1.54874        0.36865        0.84909
H         -1.91170        1.84340        3.26715
H         -2.63259        2.36627        1.93673

--Link1--
%chk=JID_8495.chk
%mem=8GB
%nprocshared=4
# B3LYP/6-311++G(d,p) empiricaldispersion=gd3bj scf=xqc pop=npa geom=check

CID_80919817_JID_8495_Energie_neutraal

0 1

--Link1--
%chk=JID_8495.chk
%mem=8GB
%nprocshared=4
# B3LYP/6-311++G(d,p) empiricaldispersion=gd3bj scf=xqc pop=npa geom=check

CID_80919817_JID_8495_Energie_kation

1 2

--Link1--
%chk=JID_8495.chk
%mem=8GB
%nprocshared=4
# B3LYP/6-311++G(d,p) empiricaldispersion=gd3bj scf=xqc pop=npa geom=check

CID_80919817_JID_8495_Energie_anion

-1 2
