%chk=JID_3804.chk
%mem=8GB
%nprocshared=4
# opt freq B3LYP/6-31G(d) empiricaldispersion=gd3bj scf=xqc

CID_104081212_JID_3804_neutraal

0 1
C          1.02072        0.06655        0.07170
C          0.82230       -1.43500        0.16455
S          1.50689       -2.16029        1.68727
C          3.30022       -1.91338        1.44383
C          4.01232       -3.12616        0.84527
C          3.82448       -3.36238       -0.65632
N          4.34405       -2.24131       -1.44048
C          4.58657       -2.58223       -2.84091
C          3.33428       -2.81727       -3.69334
C          2.36166       -1.63599       -3.79675
C          3.00757       -0.36775       -4.35027
S          1.77909        0.96026       -4.57644
C          1.04318        0.42134       -6.14080
H          0.62186        0.58041        0.95254
H          0.48975        0.45381       -0.80473
H          2.07249        0.33996       -0.04639
H         -0.25173       -1.64917        0.16601
H          1.24108       -1.93762       -0.70758
H          3.51162       -0.99764        0.88850
H          3.70708       -1.75464        2.44933
H          5.08805       -3.00621        1.03479
H          3.71905       -4.03451        1.38739
H          4.37665       -4.27673       -0.90749
H          2.77353       -3.55328       -0.89155
H          3.71687       -1.44184       -1.37285
H          5.17758       -1.77300       -3.28419
H          5.23096       -3.46841       -2.89825
H          3.65964       -3.08740       -4.70622
H          2.78690       -3.68757       -3.31133
H          1.53391       -1.95252       -4.44259
H          1.92630       -1.43051       -2.81376
H          3.75274        0.01370       -3.64571
H          3.51876       -0.55935       -5.29915
H          1.80997        0.34454       -6.91615
H          0.53852       -0.54036       -6.02388
H          0.30333        1.16028       -6.46028

--Link1--
%chk=JID_3804.chk
%mem=8GB
%nprocshared=4
# B3LYP/6-311++G(d,p) empiricaldispersion=gd3bj scf=xqc pop=npa geom=check

CID_104081212_JID_3804_Energie_neutraal

0 1

--Link1--
%chk=JID_3804.chk
%mem=8GB
%nprocshared=4
# B3LYP/6-311++G(d,p) empiricaldispersion=gd3bj scf=xqc pop=npa geom=check

CID_104081212_JID_3804_Energie_kation

1 2

--Link1--
%chk=JID_3804.chk
%mem=8GB
%nprocshared=4
# B3LYP/6-311++G(d,p) empiricaldispersion=gd3bj scf=xqc pop=npa geom=check

CID_104081212_JID_3804_Energie_anion

-1 2
