%chk=JID_10735.chk
%mem=8GB
%nprocshared=4
# opt freq B3LYP/6-31G(d) empiricaldispersion=gd3bj scf=xqc

CID_136280479_JID_10735_neutraal

0 1
C          2.49200       -0.00900       -0.33800
C          1.63064       -1.23010       -0.69191
C          0.26892       -0.61271       -0.76464
C          0.24776        0.62312       -0.10844
C          1.59357        0.94701        0.46027
C         -0.91963        1.36158       -0.01450
C         -2.07965        0.84008       -0.59354
C         -2.05502       -0.39100       -1.27407
C         -0.87369       -1.13388       -1.34806
O         -3.21009        1.62608       -0.51670
C         -4.38416        0.97995       -0.22245
C         -5.45439        1.00405       -1.11175
N         -6.66940        0.44793       -0.85277
C         -6.80355       -0.17173        0.33797
C         -5.79589       -0.24655        1.28935
C         -4.56824        0.34859        1.00738
C         -5.31606        1.70500       -2.43038
N         -5.33166        1.09854       -3.59033
O         -5.43729       -0.29040       -3.45622
N         -5.13863        3.07213       -2.43946
H          2.80966        0.48734       -1.26575
H          3.40046       -0.28231        0.20775
H          1.94074       -1.67540       -1.64130
H          1.66155       -1.98105        0.10419
H          1.61710        0.71290        1.52949
H          1.87759        1.99040        0.29741
H         -0.93651        2.31857        0.49574
H         -2.94922       -0.77447       -1.76014
H         -0.85614       -2.08967       -1.86211
H         -7.77733       -0.61933        0.51788
H         -5.96645       -0.75281        2.23346
H         -3.76699        0.32044        1.74005
H         -5.63263       -0.56952       -4.36887
H         -4.63487        3.45812       -1.64965
H         -4.79442        3.40057       -3.33507

--Link1--
%chk=JID_10735.chk
%mem=8GB
%nprocshared=4
# B3LYP/6-311++G(d,p) empiricaldispersion=gd3bj scf=xqc pop=npa geom=check

CID_136280479_JID_10735_Energie_neutraal

0 1

--Link1--
%chk=JID_10735.chk
%mem=8GB
%nprocshared=4
# B3LYP/6-311++G(d,p) empiricaldispersion=gd3bj scf=xqc pop=npa geom=check

CID_136280479_JID_10735_Energie_kation

1 2

--Link1--
%chk=JID_10735.chk
%mem=8GB
%nprocshared=4
# B3LYP/6-311++G(d,p) empiricaldispersion=gd3bj scf=xqc pop=npa geom=check

CID_136280479_JID_10735_Energie_anion

-1 2
