%chk=JID_4557.chk
%mem=8GB
%nprocshared=4
# opt freq B3LYP/6-31G(d) empiricaldispersion=gd3bj scf=xqc

CID_14473413_JID_4557_neutraal

0 1
C          0.95239        0.08315       -0.02862
O          0.45997        0.24862        1.29259
C          1.24042        1.18105        2.03524
C          0.91421        1.03449        3.51916
C          1.06901       -0.39609        4.05298
C          2.48914       -0.94902        3.89914
C          2.64297       -2.34606        4.49628
C          1.98731       -3.40609        3.62516
O          2.51082       -3.72680        2.55475
C          0.75023       -3.99735        4.09199
C         -0.05625       -4.96601        3.52325
C         -1.14194       -5.16659        4.40845
C         -0.93709       -4.30867        5.46215
O          0.20479       -3.59727        5.28184
H          0.27069       -0.57770       -0.57063
H          1.94339       -0.38050       -0.00841
H          0.99611        1.04517       -0.54842
H          2.30982        1.01554        1.86264
H          0.99626        2.19521        1.69931
H          1.54292        1.71997        4.09889
H         -0.12787        1.33684        3.68164
H          0.79287       -0.39906        5.11461
H          0.35335       -1.05153        3.54369
H          2.77204       -0.97717        2.84102
H          3.19033       -0.27263        4.40246
H          3.70912       -2.60086        4.54714
H          2.27541       -2.37925        5.52620
H          0.12955       -5.45997        2.57867
H         -1.97176       -5.84952        4.29197
H         -1.48270       -4.09497        6.37096

--Link1--
%chk=JID_4557.chk
%mem=8GB
%nprocshared=4
# B3LYP/6-311++G(d,p) empiricaldispersion=gd3bj scf=xqc pop=npa geom=check

CID_14473413_JID_4557_Energie_neutraal

0 1

--Link1--
%chk=JID_4557.chk
%mem=8GB
%nprocshared=4
# B3LYP/6-311++G(d,p) empiricaldispersion=gd3bj scf=xqc pop=npa geom=check

CID_14473413_JID_4557_Energie_kation

1 2

--Link1--
%chk=JID_4557.chk
%mem=8GB
%nprocshared=4
# B3LYP/6-311++G(d,p) empiricaldispersion=gd3bj scf=xqc pop=npa geom=check

CID_14473413_JID_4557_Energie_anion

-1 2
