%chk=JID_8850.chk
%mem=8GB
%nprocshared=4
# opt freq B3LYP/6-31G(d) empiricaldispersion=gd3bj scf=xqc

CID_64569023_JID_8850_neutraal

0 1
C          1.08153       -0.03367        0.04710
O          0.55251        0.81501        1.05252
C          1.19501        0.70533        2.31927
C          0.85841       -0.54017        3.13857
C          1.72014       -1.76843        2.86354
C          0.88430       -2.88424        3.46733
N         -0.46842       -2.51443        3.07085
C         -0.57742       -1.05378        3.02304
C         -1.55876       -3.22204        3.73767
C         -1.62114       -3.27545        5.28488
N         -1.87700       -1.99344        5.94341
C         -3.14999       -1.44352        5.87418
C         -3.45941       -0.26561        6.44412
C         -2.40997        0.44903        7.13960
C         -1.17191       -0.05041        7.23816
C         -0.83863       -1.36233        6.62563
O          0.30156       -1.80026        6.75060
N         -4.70723        0.30773        6.40624
H          0.72859        0.32892       -0.92254
H          0.70889       -1.05258        0.17388
H          2.17545       -0.01788        0.04413
H          2.27899        0.82651        2.20535
H          0.85026        1.57659        2.88894
H          1.04071       -0.28156        4.19287
H          2.70361       -1.69219        3.33835
H          1.87545       -1.94375        1.79584
H          1.17344       -3.86180        3.06970
H          1.02392       -2.89397        4.55131
H         -1.18326       -0.62420        3.82388
H         -1.05352       -0.77548        2.07816
H         -2.51178       -2.83880        3.35094
H         -1.51524       -4.26334        3.39174
H         -2.43214       -3.95626        5.57645
H         -0.70556       -3.72616        5.68250
H         -3.89501       -2.01344        5.32825
H         -2.63768        1.41664        7.57342
H         -0.36969        0.46607        7.74771
H         -4.92726        0.86492        7.22748
H         -5.45308       -0.34280        6.17506

--Link1--
%chk=JID_8850.chk
%mem=8GB
%nprocshared=4
# B3LYP/6-311++G(d,p) empiricaldispersion=gd3bj scf=xqc pop=npa geom=check

CID_64569023_JID_8850_Energie_neutraal

0 1

--Link1--
%chk=JID_8850.chk
%mem=8GB
%nprocshared=4
# B3LYP/6-311++G(d,p) empiricaldispersion=gd3bj scf=xqc pop=npa geom=check

CID_64569023_JID_8850_Energie_kation

1 2

--Link1--
%chk=JID_8850.chk
%mem=8GB
%nprocshared=4
# B3LYP/6-311++G(d,p) empiricaldispersion=gd3bj scf=xqc pop=npa geom=check

CID_64569023_JID_8850_Energie_anion

-1 2
