%chk=JID_7436.chk
%mem=8GB
%nprocshared=4
# opt freq B3LYP/6-31G(d) empiricaldispersion=gd3bj scf=xqc

CID_61859886_JID_7436_neutraal

0 1
C          0.90209        0.00649        0.01927
C          0.17875       -1.25337        0.46924
C          0.54886       -1.70190        1.88553
C          0.26926       -0.69124        3.00347
C         -1.18607       -0.22848        3.17389
N         -2.02176       -1.11469        4.01054
C         -3.16619       -0.39283        4.62776
C         -4.35224       -0.19795        3.67651
C         -3.63533       -0.97190        5.95965
C         -2.31223       -2.34438        3.40130
O         -2.60612       -2.40198        2.20356
C         -2.12751       -3.63486        4.21871
C         -0.81108       -3.72461        5.02148
C         -0.65521       -2.84035        6.25000
C         -3.38319       -4.22836        4.85920
S         -4.83358       -4.43008        4.04355
N         -3.32665       -4.70594        6.13496
H          0.58219        0.87897        0.59654
H          0.68329        0.20894       -1.03415
H          1.98599       -0.10252        0.12512
H         -0.90216       -1.10462        0.38092
H          0.43408       -2.06481       -0.22328
H          0.04101       -2.64750        2.09645
H          1.62165       -1.93436        1.90438
H          0.63533       -1.10352        3.95088
H          0.88415        0.19739        2.81343
H         -1.12759        0.74000        3.68565
H         -1.67653       -0.05055        2.21176
H         -2.79522        0.60795        4.88558
H         -4.82699       -1.14896        3.41843
H         -5.11536        0.43841        4.13762
H         -4.03784        0.28279        2.74467
H         -2.80391       -1.06735        6.66186
H         -4.37314       -0.30679        6.42312
H         -4.11206       -1.94311        5.84839
H         -1.93059       -4.36905        3.41399
H         -0.66840       -4.76589        5.33951
H          0.02835       -3.50838        4.34986
H         -1.47935       -2.95196        6.95639
H          0.26505       -3.11226        6.77891
H         -0.56352       -1.78477        5.98812
H         -2.47758       -4.79895        6.67527
H         -4.15494       -5.15557        6.51136

--Link1--
%chk=JID_7436.chk
%mem=8GB
%nprocshared=4
# B3LYP/6-311++G(d,p) empiricaldispersion=gd3bj scf=xqc pop=npa geom=check

CID_61859886_JID_7436_Energie_neutraal

0 1

--Link1--
%chk=JID_7436.chk
%mem=8GB
%nprocshared=4
# B3LYP/6-311++G(d,p) empiricaldispersion=gd3bj scf=xqc pop=npa geom=check

CID_61859886_JID_7436_Energie_kation

1 2

--Link1--
%chk=JID_7436.chk
%mem=8GB
%nprocshared=4
# B3LYP/6-311++G(d,p) empiricaldispersion=gd3bj scf=xqc pop=npa geom=check

CID_61859886_JID_7436_Energie_anion

-1 2
