%chk=JID_6119.chk
%mem=8GB
%nprocshared=4
# opt freq B3LYP/6-31G(d) empiricaldispersion=gd3bj scf=xqc

CID_137811903_JID_6119_neutraal

0 1
C          0.92814        0.01962       -0.06671
C         -0.06336        1.18168        0.06171
C          0.65138        2.48353       -0.32300
C         -1.34865        0.96446       -0.78773
C         -2.01861       -0.37990       -0.49415
N         -2.32483        2.02810       -0.51549
C         -2.75391        3.02965       -1.32094
S         -3.27191        4.45727       -0.62610
N         -2.76738        2.90260       -2.67924
N         -3.20696        1.70701       -3.29206
C         -2.76996        1.58793       -4.68476
C         -1.27487        1.30706       -4.87225
C         -0.92900        1.00021       -6.33021
C          0.58696        1.12910       -6.37455
C          0.93963        2.18659       -5.33089
C         -0.35194        2.48956       -4.57377
H          1.18037       -0.17097       -1.11536
H          0.52266       -0.90106        0.36360
H          1.85778        0.23874        0.46996
H         -0.34773        1.26254        1.11950
H          0.96026        2.47045       -1.37311
H          0.01199        3.35639       -0.16446
H          1.54936        2.62716        0.28794
H         -1.05998        0.99858       -1.84104
H         -2.20631       -0.50063        0.57858
H         -2.98526       -0.46095       -1.00276
H         -1.40237       -1.21748       -0.83409
H         -2.44450        2.25487        0.46555
H         -3.12102        3.75295       -3.12007
H         -2.90649        0.90216       -2.74729
H         -3.33413        0.75554       -5.12289
H         -3.07063        2.48096       -5.24737
H         -0.97951        0.44811       -4.25421
H         -1.26337        0.00438       -6.63715
H         -1.38675        1.73491       -7.00415
H          0.94453        1.39937       -7.37284
H          1.05338        0.17452       -6.10364
H          1.33657        3.09428       -5.79770
H          1.70981        1.80445       -4.65163
H         -0.78464        3.42456       -4.95067
H         -0.16225        2.61835       -3.50547

--Link1--
%chk=JID_6119.chk
%mem=8GB
%nprocshared=4
# B3LYP/6-311++G(d,p) empiricaldispersion=gd3bj scf=xqc pop=npa geom=check

CID_137811903_JID_6119_Energie_neutraal

0 1

--Link1--
%chk=JID_6119.chk
%mem=8GB
%nprocshared=4
# B3LYP/6-311++G(d,p) empiricaldispersion=gd3bj scf=xqc pop=npa geom=check

CID_137811903_JID_6119_Energie_kation

1 2

--Link1--
%chk=JID_6119.chk
%mem=8GB
%nprocshared=4
# B3LYP/6-311++G(d,p) empiricaldispersion=gd3bj scf=xqc pop=npa geom=check

CID_137811903_JID_6119_Energie_anion

-1 2
