%chk=JID_9026.chk
%mem=8GB
%nprocshared=4
# opt freq B3LYP/6-31G(d) empiricaldispersion=gd3bj scf=xqc

CID_63317769_JID_9026_neutraal

0 1
C          1.30600        0.17900       -0.14100
C          1.02383       -1.28871        0.15640
C         -0.33439       -1.56784       -0.47491
N         -1.02882       -0.26048       -0.38017
C         -0.00189        0.74579       -0.67161
C         -0.29215       -2.06406       -1.89491
N          0.68955       -1.76530       -2.76237
O          0.28531       -2.39816       -3.93756
C         -0.89077       -3.02668       -3.65351
N         -1.27379       -2.88513       -2.40572
C         -1.56516       -3.73047       -4.76837
C         -2.70077       -2.87844       -5.32671
O         -2.13976       -1.81124       -6.10592
C         -2.59860       -0.57949       -5.72883
C         -3.95376       -0.25016       -5.74918
C         -4.35908        1.02989       -5.36810
C         -3.40969        1.97865       -4.98534
C         -2.05333        1.65259       -4.99309
C         -1.64666        0.37450       -5.37502
H          1.62656        0.69580        0.77018
H          2.10330        0.28441       -0.88459
H          0.95951       -1.42001        1.24432
H          1.82466       -1.94159       -0.20583
H         -0.87698       -2.31235        0.12009
H         -1.32839       -0.14042        0.58660
H         -0.24741        1.70541       -0.20556
H          0.05906        0.91663       -1.75245
H         -0.83927       -3.96384       -5.55566
H         -1.96861       -4.67729       -4.39286
H         -3.30760       -3.48547       -6.00806
H         -3.35313       -2.53063       -4.51408
H         -4.69544       -0.97765       -6.06315
H         -5.41429        1.28930       -5.37123
H         -3.72610        2.97391       -4.68444
H         -1.31236        2.39077       -4.69892
H         -0.59079        0.11818       -5.37780

--Link1--
%chk=JID_9026.chk
%mem=8GB
%nprocshared=4
# B3LYP/6-311++G(d,p) empiricaldispersion=gd3bj scf=xqc pop=npa geom=check

CID_63317769_JID_9026_Energie_neutraal

0 1

--Link1--
%chk=JID_9026.chk
%mem=8GB
%nprocshared=4
# B3LYP/6-311++G(d,p) empiricaldispersion=gd3bj scf=xqc pop=npa geom=check

CID_63317769_JID_9026_Energie_kation

1 2

--Link1--
%chk=JID_9026.chk
%mem=8GB
%nprocshared=4
# B3LYP/6-311++G(d,p) empiricaldispersion=gd3bj scf=xqc pop=npa geom=check

CID_63317769_JID_9026_Energie_anion

-1 2
