%chk=JID_8718.chk
%mem=8GB
%nprocshared=4
# opt freq B3LYP/6-31G(d) empiricaldispersion=gd3bj scf=xqc

CID_103103794_JID_8718_neutraal

0 1
C          1.08869        0.01832        0.04240
C          0.93574        1.30607       -0.75283
N          1.36830        1.15102       -2.14285
C          0.36182        0.66514       -3.10504
C         -0.53579        1.77161       -3.67249
O         -1.48357        1.54221       -4.41754
N         -0.21134        3.05404       -3.33615
C          2.72690        1.29708       -2.42446
O          3.56534        1.58092       -1.57248
C          3.21262        1.07227       -3.80242
C          4.07508       -0.01442       -4.01926
C          4.53049       -0.19217       -5.32759
C          4.17944        0.64852       -6.37994
C          3.33443        1.74204       -6.13567
C          2.86149        1.95242       -4.83310
N          4.76699        0.23814       -7.55023
C          5.47033       -0.82377       -7.23062
N          5.36246       -1.12020       -5.90104
H          0.48678       -0.78743       -0.38955
H          0.76374        0.17016        1.07626
H          2.13091       -0.31651        0.05746
H         -0.10773        1.63928       -0.74001
H          1.53238        2.09370       -0.27866
H          0.84202        0.15877       -3.94593
H         -0.27706       -0.06436       -2.59598
H          0.52039        3.24916       -2.66430
H         -0.80159        3.80526       -3.66713
H          4.37178       -0.67167       -3.20865
H          3.06720        2.41135       -6.94648
H          2.23112        2.81416       -4.63536
H          6.07290       -1.41218       -7.90987
H          5.81778       -1.88610       -5.42599

--Link1--
%chk=JID_8718.chk
%mem=8GB
%nprocshared=4
# B3LYP/6-311++G(d,p) empiricaldispersion=gd3bj scf=xqc pop=npa geom=check

CID_103103794_JID_8718_Energie_neutraal

0 1

--Link1--
%chk=JID_8718.chk
%mem=8GB
%nprocshared=4
# B3LYP/6-311++G(d,p) empiricaldispersion=gd3bj scf=xqc pop=npa geom=check

CID_103103794_JID_8718_Energie_kation

1 2

--Link1--
%chk=JID_8718.chk
%mem=8GB
%nprocshared=4
# B3LYP/6-311++G(d,p) empiricaldispersion=gd3bj scf=xqc pop=npa geom=check

CID_103103794_JID_8718_Energie_anion

-1 2
