%chk=JID_180.chk
%mem=8GB
%nprocshared=4
# opt freq B3LYP/6-31G(d) empiricaldispersion=gd3bj scf=xqc

CID_147853953_JID_180_neutraal

0 1
C         -2.38400        0.00700       -0.11600
N         -0.95123        0.20222        0.10793
C         -0.18328       -0.86933       -0.54524
C          1.31419       -0.70944       -0.27746
C          1.84577        0.66097       -0.72273
C          0.95387        1.75996       -0.12644
C         -0.53148        1.51780       -0.39955
N          1.84502        0.75065       -2.19752
C          2.82696        1.69189       -2.73009
C          3.04847        0.20515       -2.82041
H         -2.64594        0.03371       -1.17999
H         -2.70954       -0.95497        0.29530
H         -2.96257        0.78052        0.40117
H         -0.49602       -1.84068       -0.14251
H         -0.37579       -0.89286       -1.62574
H          1.86517       -1.51891       -0.77177
H          1.49883       -0.82770        0.79893
H          2.85926        0.78401       -0.31558
H          1.24298        2.74581       -0.51072
H          1.11575        1.79639        0.95945
H         -0.74128        1.61402       -1.47278
H         -1.10077        2.30483        0.11037
H          2.53236        2.21799       -3.62993
H          3.43098        2.26503       -2.03767
H          3.80523       -0.24548       -2.19029
H          2.90372       -0.27332       -3.78134

--Link1--
%chk=JID_180.chk
%mem=8GB
%nprocshared=4
# B3LYP/6-311++G(d,p) empiricaldispersion=gd3bj scf=xqc pop=npa geom=check

CID_147853953_JID_180_Energie_neutraal

0 1

--Link1--
%chk=JID_180.chk
%mem=8GB
%nprocshared=4
# B3LYP/6-311++G(d,p) empiricaldispersion=gd3bj scf=xqc pop=npa geom=check

CID_147853953_JID_180_Energie_kation

1 2

--Link1--
%chk=JID_180.chk
%mem=8GB
%nprocshared=4
# B3LYP/6-311++G(d,p) empiricaldispersion=gd3bj scf=xqc pop=npa geom=check

CID_147853953_JID_180_Energie_anion

-1 2
