%chk=JID_4896.chk
%mem=8GB
%nprocshared=4
# opt freq B3LYP/6-31G(d) empiricaldispersion=gd3bj scf=xqc

CID_153463792_JID_4896_neutraal

0 1
C          0.93333       -0.07261       -0.01683
C          0.42920        0.56332       -1.31814
C          1.01017       -0.15884       -2.53730
C         -1.09810        0.60947       -1.36975
C         -1.80871       -0.60425       -1.27128
C         -3.19911       -0.63142       -1.24815
C         -3.91117        0.55806       -1.29868
C         -3.24183        1.78710       -1.39342
C         -1.82803        1.82492       -1.48637
C         -1.12079        3.16412       -1.66203
C         -2.04505        4.36513       -1.88498
C         -3.28663        4.27995       -1.01957
C         -4.08143        3.04295       -1.41564
O         -0.24959        3.13234       -2.79598
H          0.66736       -1.13220        0.05839
H          0.51591        0.44135        0.85624
H          2.02505       -0.00357        0.04457
H          0.83948        1.57624       -1.32022
H          0.72601       -1.21643       -2.56241
H          0.66378        0.30151       -3.46898
H          2.10453       -0.11103       -2.52664
H         -1.27607       -1.55056       -1.20250
H         -3.72418       -1.57958       -1.17087
H         -4.99795        0.52669       -1.25558
H         -0.51670        3.35397       -0.76658
H         -2.33638        4.43050       -2.94243
H         -1.49470        5.29066       -1.67565
H         -3.00474        4.23338        0.03970
H         -3.90379        5.17516       -1.15352
H         -4.92728        2.93851       -0.72533
H         -4.49072        3.16799       -2.42580
H         -0.60172        2.45738       -3.40212

--Link1--
%chk=JID_4896.chk
%mem=8GB
%nprocshared=4
# B3LYP/6-311++G(d,p) empiricaldispersion=gd3bj scf=xqc pop=npa geom=check

CID_153463792_JID_4896_Energie_neutraal

0 1

--Link1--
%chk=JID_4896.chk
%mem=8GB
%nprocshared=4
# B3LYP/6-311++G(d,p) empiricaldispersion=gd3bj scf=xqc pop=npa geom=check

CID_153463792_JID_4896_Energie_kation

1 2

--Link1--
%chk=JID_4896.chk
%mem=8GB
%nprocshared=4
# B3LYP/6-311++G(d,p) empiricaldispersion=gd3bj scf=xqc pop=npa geom=check

CID_153463792_JID_4896_Energie_anion

-1 2
