%chk=JID_5691.chk
%mem=8GB
%nprocshared=4
# opt freq B3LYP/6-31G(d) empiricaldispersion=gd3bj scf=xqc

CID_138388693_JID_5691_neutraal

0 1
C          1.04687       -0.05836        0.06631
C          0.01115       -1.18093        0.14931
C         -0.01473       -1.76164        1.56450
C         -1.39617       -0.69935       -0.24098
N         -1.50568       -0.27181       -1.62785
C         -1.92094       -1.16841       -2.70303
C         -2.12366       -0.12377       -3.78949
N         -2.51986       -0.35231       -4.99072
N         -1.83684        1.11238       -3.33625
C         -1.50425        1.05706       -2.02059
O         -1.27580        2.03116       -1.32385
C         -0.87369       -2.18358       -3.13888
C         -1.07634       -3.51833       -2.46526
O         -1.91720       -3.75261       -1.60693
N         -0.20447       -4.48792       -2.86905
H          0.76718        0.78922        0.70103
H          1.15563        0.30411       -0.96063
H          2.03047       -0.41351        0.39226
H          0.32817       -1.97894       -0.52982
H         -0.31495       -1.00681        2.29924
H         -0.71955       -2.59749        1.62828
H          0.97371       -2.13767        1.84919
H         -2.13802       -1.48891       -0.07664
H         -1.68282        0.14248        0.40148
H         -2.89726       -1.60212       -2.46072
H         -2.58033        0.52576       -5.51371
H         -1.92011        1.98662       -3.82407
H         -0.93839       -2.36684       -4.21868
H          0.14108       -1.82768       -2.92650
H          0.43280       -4.36824       -3.64423
H         -0.31763       -5.41321       -2.47469

--Link1--
%chk=JID_5691.chk
%mem=8GB
%nprocshared=4
# B3LYP/6-311++G(d,p) empiricaldispersion=gd3bj scf=xqc pop=npa geom=check

CID_138388693_JID_5691_Energie_neutraal

0 1

--Link1--
%chk=JID_5691.chk
%mem=8GB
%nprocshared=4
# B3LYP/6-311++G(d,p) empiricaldispersion=gd3bj scf=xqc pop=npa geom=check

CID_138388693_JID_5691_Energie_kation

1 2

--Link1--
%chk=JID_5691.chk
%mem=8GB
%nprocshared=4
# B3LYP/6-311++G(d,p) empiricaldispersion=gd3bj scf=xqc pop=npa geom=check

CID_138388693_JID_5691_Energie_anion

-1 2
