%chk=JID_2368.chk
%mem=8GB
%nprocshared=4
# opt freq B3LYP/6-31G(d) empiricaldispersion=gd3bj scf=xqc

CID_63731624_JID_2368_neutraal

0 1
C          1.09945       -0.00868       -0.00578
C          0.62316       -1.39451        0.40866
C          1.03642       -1.79075        1.83952
C          0.49841       -0.83490        2.94414
N         -0.95259       -0.84042        3.06212
C         -1.54532       -1.82934        3.81976
N         -2.77070       -2.19858        3.42515
C         -3.37880       -3.16463        4.13994
C         -2.80538       -3.78175        5.22248
C         -1.54363       -3.34666        5.53785
N         -0.89520       -2.38714        4.85127
N          0.64096       -3.19626        2.05477
H          0.58444        0.77750        0.55352
H          0.89194        0.15584       -1.06819
H          2.17738        0.10024        0.14911
H         -0.46580       -1.44798        0.28881
H          1.04772       -2.11948       -0.29857
H          2.13177       -1.75778        1.89361
H          0.97866       -1.07317        3.90203
H          0.81259        0.19026        2.72082
H         -1.48247       -0.74515        2.20503
H         -4.37535       -3.43276        3.80184
H         -3.31058       -4.55286        5.78563
H         -0.99625       -3.76608        6.37671
H          0.75375       -3.41021        3.04964
H         -0.36661       -3.27692        1.90348

--Link1--
%chk=JID_2368.chk
%mem=8GB
%nprocshared=4
# B3LYP/6-311++G(d,p) empiricaldispersion=gd3bj scf=xqc pop=npa geom=check

CID_63731624_JID_2368_Energie_neutraal

0 1

--Link1--
%chk=JID_2368.chk
%mem=8GB
%nprocshared=4
# B3LYP/6-311++G(d,p) empiricaldispersion=gd3bj scf=xqc pop=npa geom=check

CID_63731624_JID_2368_Energie_kation

1 2

--Link1--
%chk=JID_2368.chk
%mem=8GB
%nprocshared=4
# B3LYP/6-311++G(d,p) empiricaldispersion=gd3bj scf=xqc pop=npa geom=check

CID_63731624_JID_2368_Energie_anion

-1 2
