%chk=JID_8582.chk
%mem=8GB
%nprocshared=4
# opt freq B3LYP/6-31G(d) empiricaldispersion=gd3bj scf=xqc

CID_43523591_JID_8582_neutraal

0 1
C          1.08080       -0.00110        0.05891
C          0.74102        0.42180        1.48918
C          1.21965        1.82416        1.77709
C          2.30637        2.03098        2.62439
N          2.80361        3.24629        2.94684
C          2.19631        4.31660        2.39320
C          1.11541        4.22633        1.53343
C          0.62339        2.96175        1.22113
N         -0.69788        0.30792        1.71599
C         -1.35263       -0.68908        2.40009
O         -2.52523       -0.94195        2.14078
C         -0.63134       -1.46618        3.43136
C         -0.61905       -2.86032        3.27630
C          0.03754       -3.65876        4.20946
C          0.65835       -3.06767        5.30675
C          0.62434       -1.67890        5.47183
C          0.01080       -0.84923        4.52351
N         -0.13763        0.51305        4.82566
H          0.57352        0.62782       -0.68176
H          0.76785       -1.03549       -0.12196
H          2.15847        0.06537       -0.12656
H          1.26107       -0.27660        2.15161
H          2.82735        1.19772        3.09027
H          2.61528        5.28083        2.66678
H          0.66520        5.12042        1.11652
H         -0.22488        2.87449        0.54740
H         -1.30599        0.75582        1.04185
H         -1.13264       -3.31941        2.43449
H          0.04410       -4.73967        4.09406
H          1.14593       -3.68870        6.05451
H          1.06983       -1.24761        6.36541
H         -0.38059        1.10640        4.03480
H          0.59224        0.91403        5.40584

--Link1--
%chk=JID_8582.chk
%mem=8GB
%nprocshared=4
# B3LYP/6-311++G(d,p) empiricaldispersion=gd3bj scf=xqc pop=npa geom=check

CID_43523591_JID_8582_Energie_neutraal

0 1

--Link1--
%chk=JID_8582.chk
%mem=8GB
%nprocshared=4
# B3LYP/6-311++G(d,p) empiricaldispersion=gd3bj scf=xqc pop=npa geom=check

CID_43523591_JID_8582_Energie_kation

1 2

--Link1--
%chk=JID_8582.chk
%mem=8GB
%nprocshared=4
# B3LYP/6-311++G(d,p) empiricaldispersion=gd3bj scf=xqc pop=npa geom=check

CID_43523591_JID_8582_Energie_anion

-1 2
