%chk=JID_7554.chk
%mem=8GB
%nprocshared=4
# opt freq B3LYP/6-31G(d) empiricaldispersion=gd3bj scf=xqc

CID_100586089_JID_7554_neutraal

0 1
C          0.92768       -0.00344       -0.06897
C          1.03275        1.32749       -0.79895
C          0.96518        1.22076       -2.32632
C         -0.28854        0.55314       -2.89799
O         -1.46240        1.34292       -2.66408
C         -2.23703        0.94638       -1.60739
C         -2.65045        1.91213       -0.68653
C         -3.36393        1.52396        0.46079
C         -3.70764        0.18019        0.69598
C         -3.34786       -0.75485       -0.29105
C         -2.64339       -0.37554       -1.43796
C         -4.38404       -0.27720        2.00109
C         -3.29785       -0.88847        2.91058
C         -5.06408        0.87350        2.77663
C         -5.47384       -1.34043        1.73757
C         -2.31740        3.29721       -0.86246
N         -2.05796        4.42470       -0.96386
H         -0.04666       -0.47497       -0.20467
H          1.07322        0.14755        1.00562
H          1.69691       -0.69949       -0.41833
H          0.26054        2.00710       -0.42975
H          1.99153        1.79046       -0.53392
H          1.04096        2.23625       -2.73455
H          1.84447        0.66760       -2.67849
H         -0.17645        0.49640       -3.98722
H         -0.36635       -0.48201       -2.55162
H         -3.62247        2.29784        1.18053
H         -3.58666       -1.80966       -0.17535
H         -2.40299       -1.13367       -2.17800
H         -2.51110       -0.15820        3.13598
H         -3.72155       -1.22582        3.86332
H         -2.81430       -1.75295        2.44057
H         -5.79991        1.39400        2.15282
H         -5.58904        0.49707        3.66273
H         -4.33808        1.61140        3.13634
H         -6.21399       -0.97707        1.01547
H         -5.05908       -2.27708        1.35036
H         -6.00582       -1.59794        2.66113

--Link1--
%chk=JID_7554.chk
%mem=8GB
%nprocshared=4
# B3LYP/6-311++G(d,p) empiricaldispersion=gd3bj scf=xqc pop=npa geom=check

CID_100586089_JID_7554_Energie_neutraal

0 1

--Link1--
%chk=JID_7554.chk
%mem=8GB
%nprocshared=4
# B3LYP/6-311++G(d,p) empiricaldispersion=gd3bj scf=xqc pop=npa geom=check

CID_100586089_JID_7554_Energie_kation

1 2

--Link1--
%chk=JID_7554.chk
%mem=8GB
%nprocshared=4
# B3LYP/6-311++G(d,p) empiricaldispersion=gd3bj scf=xqc pop=npa geom=check

CID_100586089_JID_7554_Energie_anion

-1 2
