%chk=JID_8304.chk
%mem=8GB
%nprocshared=4
# opt freq B3LYP/6-31G(d) empiricaldispersion=gd3bj scf=xqc

CID_114220289_JID_8304_neutraal

0 1
C         -2.54900       -0.97100        0.01300
C         -1.43325       -0.10953        0.51542
C         -1.33017        1.20356        0.12022
C         -0.28970        1.89914        0.69014
N          0.60493        1.36653        1.54872
C          0.41702        0.09293        1.86358
N         -0.56499       -0.67340        1.38074
N          1.31651       -0.48895        2.73093
C         -0.10890        3.34384        0.40750
O          0.90223        3.73327       -0.17204
N         -1.06416        4.25115        0.80404
C         -2.30482        4.04912        1.56506
C         -3.08375        5.37226        1.64985
C         -2.44454        6.33917        2.65014
C         -2.21471        5.68187        4.01288
N         -1.42376        4.45445        3.87782
C         -2.09549        3.49054        2.99283
C         -1.17298        3.84666        5.18494
H         -2.51898       -1.03156       -1.07941
H         -2.46867       -1.98756        0.41157
H         -3.51424       -0.55886        0.32344
H         -2.01753        1.66221       -0.57630
H          1.36018       -1.48315        2.55856
H          2.18796        0.02366        2.69914
H         -0.72097        5.20064        0.71681
H         -2.90598        3.33349        0.99403
H         -4.11163        5.16246        1.97187
H         -3.14846        5.85004        0.66500
H         -3.08859        7.21760        2.77206
H         -1.48831        6.70408        2.25501
H         -3.18265        5.47361        4.48749
H         -1.68477        6.39633        4.65426
H         -1.51117        2.56789        2.94986
H         -3.07520        3.21577        3.40861
H         -2.10129        3.55389        5.68913
H         -0.54381        2.95527        5.08016
H         -0.62924        4.53993        5.83532

--Link1--
%chk=JID_8304.chk
%mem=8GB
%nprocshared=4
# B3LYP/6-311++G(d,p) empiricaldispersion=gd3bj scf=xqc pop=npa geom=check

CID_114220289_JID_8304_Energie_neutraal

0 1

--Link1--
%chk=JID_8304.chk
%mem=8GB
%nprocshared=4
# B3LYP/6-311++G(d,p) empiricaldispersion=gd3bj scf=xqc pop=npa geom=check

CID_114220289_JID_8304_Energie_kation

1 2

--Link1--
%chk=JID_8304.chk
%mem=8GB
%nprocshared=4
# B3LYP/6-311++G(d,p) empiricaldispersion=gd3bj scf=xqc pop=npa geom=check

CID_114220289_JID_8304_Energie_anion

-1 2
