%chk=JID_7067.chk
%mem=8GB
%nprocshared=4
# opt freq B3LYP/6-31G(d) empiricaldispersion=gd3bj scf=xqc

CID_116725919_JID_7067_neutraal

0 1
C          0.92755       -0.06778        0.01255
C          0.45160        1.37526        0.08880
N          1.03668        2.13315       -1.01225
C          0.54540        3.51932       -1.12861
C          1.14281        4.38332        0.03232
C          2.67508        4.34988        0.16963
C          3.04770        5.58503        0.99320
C          1.76869        6.40141        1.14064
C          0.85427        5.88551        0.03762
C          0.78455        4.12580       -2.57233
C          0.67874        3.18148       -3.84578
C         -0.57351        2.28555       -3.88069
C          0.67677        4.04462       -5.13308
C          1.92225        2.26169       -3.94846
O          0.05380        5.35552       -2.79012
C         -1.34708        5.36082       -2.54907
C         -1.91795        6.64025       -3.13214
H          0.63376       -0.53228       -0.93501
H          0.48668       -0.65346        0.82564
H          2.01723       -0.13222        0.10342
H         -0.64199        1.38835        0.02501
H          0.74408        1.78890        1.05874
H          2.05340        2.11406       -0.95657
H         -0.53940        3.49073       -0.97794
H          0.72701        3.99203        0.97262
H          3.01866        3.43519        0.66427
H          3.17016        4.40150       -0.80585
H          3.82087        6.16241        0.47410
H          3.44879        5.30871        1.97401
H          1.95200        7.47692        1.05965
H          1.31733        6.21159        2.12187
H          1.14142        6.36627       -0.90181
H         -0.19389        6.11245        0.24912
H          1.82739        4.46713       -2.58130
H         -1.48346        2.84755       -4.10058
H         -0.48699        1.53312       -4.67453
H         -0.72824        1.74354       -2.94492
H          1.55120        4.70449       -5.16460
H          0.70187        3.41782       -6.03229
H         -0.22093        4.66714       -5.20640
H          2.85015        2.82936       -3.81844
H          1.91184        1.45068       -3.21739
H          1.97402        1.77979       -4.93260
H         -1.84179        4.50727       -3.00711
H         -1.54682        5.34529       -1.47485
H         -1.73359        6.68735       -4.21051
H         -2.99568        6.70154       -2.95644
H         -1.43627        7.51686       -2.68665

--Link1--
%chk=JID_7067.chk
%mem=8GB
%nprocshared=4
# B3LYP/6-311++G(d,p) empiricaldispersion=gd3bj scf=xqc pop=npa geom=check

CID_116725919_JID_7067_Energie_neutraal

0 1

--Link1--
%chk=JID_7067.chk
%mem=8GB
%nprocshared=4
# B3LYP/6-311++G(d,p) empiricaldispersion=gd3bj scf=xqc pop=npa geom=check

CID_116725919_JID_7067_Energie_kation

1 2

--Link1--
%chk=JID_7067.chk
%mem=8GB
%nprocshared=4
# B3LYP/6-311++G(d,p) empiricaldispersion=gd3bj scf=xqc pop=npa geom=check

CID_116725919_JID_7067_Energie_anion

-1 2
