%chk=JID_3781.chk
%mem=8GB
%nprocshared=4
# opt freq B3LYP/6-31G(d) empiricaldispersion=gd3bj scf=xqc

CID_115840178_JID_3781_neutraal

0 1
C          0.96949       -0.05061       -0.08067
C          0.70818        0.58381        1.28861
C          1.28268        2.00648        1.30616
C         -0.79506        0.59586        1.64371
C         -1.40681       -0.77738        1.76278
C         -0.93065       -1.89977        2.43689
C         -1.82057       -2.98411        2.30633
C         -2.92199       -2.66195        1.56610
S         -2.93468       -1.09264        0.99973
C         -3.89443       -3.76892        1.41605
C         -3.04027       -4.97822        1.90742
C         -1.88133       -4.39088        2.77358
O         -0.98838        1.23059        2.90964
H          0.42759        0.47899       -0.87170
H          0.66173       -1.10049       -0.10271
H          2.03690       -0.01983       -0.32486
H          1.25921        0.01266        2.04712
H          0.76496        2.65116        0.58768
H          1.19081        2.46004        2.29829
H          2.34703        1.99865        1.04749
H         -1.33402        1.19809        0.90237
H          0.00360       -1.92467        2.98362
H         -4.23301       -3.91436        0.38678
H         -4.75878       -3.61889        2.07117
H         -3.63707       -5.71379        2.45566
H         -2.60977       -5.48795        1.03520
H         -2.13948       -4.43113        3.83690
H         -0.94733       -4.93398        2.60496
H         -0.68895        0.61036        3.59467

--Link1--
%chk=JID_3781.chk
%mem=8GB
%nprocshared=4
# B3LYP/6-311++G(d,p) empiricaldispersion=gd3bj scf=xqc pop=npa geom=check

CID_115840178_JID_3781_Energie_neutraal

0 1

--Link1--
%chk=JID_3781.chk
%mem=8GB
%nprocshared=4
# B3LYP/6-311++G(d,p) empiricaldispersion=gd3bj scf=xqc pop=npa geom=check

CID_115840178_JID_3781_Energie_kation

1 2

--Link1--
%chk=JID_3781.chk
%mem=8GB
%nprocshared=4
# B3LYP/6-311++G(d,p) empiricaldispersion=gd3bj scf=xqc pop=npa geom=check

CID_115840178_JID_3781_Energie_anion

-1 2
