%chk=JID_4866.chk
%mem=8GB
%nprocshared=4
# opt freq B3LYP/6-31G(d) empiricaldispersion=gd3bj scf=xqc

CID_79671368_JID_4866_neutraal

0 1
C          0.96550       -0.09126        0.02193
C          0.45883       -1.31590        0.76621
C          1.04731       -1.39485        2.19822
C          0.45044       -0.45105        3.25771
C         -0.76636       -0.97001        4.04066
S         -0.41743       -2.47771        5.00959
C         -1.16506       -3.75524        3.92239
C         -2.69622       -3.82947        4.01734
C         -3.27071       -4.69585        2.88759
O         -2.71264       -6.01050        2.96400
O         -3.07965       -4.42263        5.26583
C         -1.06117       -1.31590        0.76620
N         -2.32214       -1.31590        0.76620
N          0.96183       -2.48850        0.01102
H          0.62578        0.83590        0.49808
H          0.59913       -0.06463       -1.01238
H          2.06101       -0.05648       -0.01528
H          1.01641       -2.42624        2.56263
H          2.12122       -1.16514        2.13090
H          1.24120       -0.22335        3.98574
H          0.19097        0.51015        2.79923
H         -1.05669       -0.19931        4.76345
H         -1.63232       -1.12405        3.39679
H         -0.85122       -3.56955        2.89244
H         -0.72292       -4.70724        4.23624
H         -3.15053       -2.83521        3.96504
H         -4.35555       -4.79181        2.99740
H         -3.03870       -4.27330        1.90540
H         -3.16034       -6.54195        2.28079
H         -2.81945       -5.36220        5.20144
H          1.98165       -2.49751        0.02722
H          0.66664       -3.34987        0.47137

--Link1--
%chk=JID_4866.chk
%mem=8GB
%nprocshared=4
# B3LYP/6-311++G(d,p) empiricaldispersion=gd3bj scf=xqc pop=npa geom=check

CID_79671368_JID_4866_Energie_neutraal

0 1

--Link1--
%chk=JID_4866.chk
%mem=8GB
%nprocshared=4
# B3LYP/6-311++G(d,p) empiricaldispersion=gd3bj scf=xqc pop=npa geom=check

CID_79671368_JID_4866_Energie_kation

1 2

--Link1--
%chk=JID_4866.chk
%mem=8GB
%nprocshared=4
# B3LYP/6-311++G(d,p) empiricaldispersion=gd3bj scf=xqc pop=npa geom=check

CID_79671368_JID_4866_Energie_anion

-1 2
