%chk=JID_6418.chk
%mem=8GB
%nprocshared=4
# opt freq B3LYP/6-31G(d) empiricaldispersion=gd3bj scf=xqc

CID_103569446_JID_6418_neutraal

0 1
C          1.07984       -0.05939        0.00988
C          0.52575        0.04230       -1.40494
C          0.38813       -1.31723       -2.13402
C         -0.36877       -2.36875       -1.32354
N         -0.01519       -1.16044       -3.54901
C          0.63585       -2.14414       -4.41367
C         -1.40957       -0.87964       -3.98079
C         -2.37199       -2.05689       -4.38328
N         -2.66136       -3.09873       -3.39352
C         -2.09409        0.18864       -3.17680
C         -2.95864        0.07638       -2.10360
N         -3.24631        1.34719       -1.70148
N         -2.72880        2.29213       -2.50687
C         -2.01760        1.58919       -3.39119
C         -3.96974        1.73489       -0.50684
C         -3.02834        2.10952        0.62615
H          0.36066       -0.52661        0.68925
H          1.29298        0.94133        0.40020
H          2.01047       -0.63478        0.03161
H         -0.42421        0.56324       -1.31796
H          1.19123        0.69045       -1.98983
H          1.42537       -1.68542       -2.15281
H         -1.40589       -2.08790       -1.13811
H         -0.33718       -3.34199       -1.82067
H          0.10354       -2.52916       -0.34867
H          0.29703       -3.16473       -4.21015
H          0.45416       -1.92284       -5.47171
H          1.72446       -2.11507       -4.28893
H         -1.25749       -0.38121       -4.95346
H         -3.33161       -1.62868       -4.69997
H         -1.96263       -2.55550       -5.27059
H         -3.31888       -3.76548       -3.79480
H         -1.80761       -3.62151       -3.21409
H         -3.33580       -0.78919       -1.57681
H         -1.45717        2.11801       -4.15157
H         -4.61991        2.57588       -0.77019
H         -4.60558        0.89336       -0.21181
H         -2.39798        2.96230        0.35159
H         -3.59638        2.38037        1.52120
H         -2.36462        1.27574        0.88021

--Link1--
%chk=JID_6418.chk
%mem=8GB
%nprocshared=4
# B3LYP/6-311++G(d,p) empiricaldispersion=gd3bj scf=xqc pop=npa geom=check

CID_103569446_JID_6418_Energie_neutraal

0 1

--Link1--
%chk=JID_6418.chk
%mem=8GB
%nprocshared=4
# B3LYP/6-311++G(d,p) empiricaldispersion=gd3bj scf=xqc pop=npa geom=check

CID_103569446_JID_6418_Energie_kation

1 2

--Link1--
%chk=JID_6418.chk
%mem=8GB
%nprocshared=4
# B3LYP/6-311++G(d,p) empiricaldispersion=gd3bj scf=xqc pop=npa geom=check

CID_103569446_JID_6418_Energie_anion

-1 2
