%chk=JID_10233.chk
%mem=8GB
%nprocshared=4
# opt freq B3LYP/6-31G(d) empiricaldispersion=gd3bj scf=xqc

CID_80309676_JID_10233_neutraal

0 1
C          0.91170        0.04688       -0.00220
C          0.25233       -1.28522       -0.33024
C          0.83606       -2.46910        0.44956
N          0.55794       -2.34181        1.88056
C          0.89272       -3.51150        2.69300
C          2.35579       -3.97463        2.65313
C          2.33451       -5.44822        3.08455
C          1.00052       -5.91564        2.57486
C          0.16927       -4.79203        2.36452
C         -1.16644       -4.92532        2.00642
C         -1.68326       -6.20401        1.83984
C         -0.86631       -7.32261        2.04861
C          0.48477       -7.19397        2.40987
O          1.10502       -8.39094        2.61421
C          2.47418       -8.55314        2.22842
C          2.68959       -8.25610        0.77188
N          3.51344       -7.33160        0.31391
C          3.47487       -7.31326       -1.06562
C          2.64609       -8.24403       -1.65106
S          1.88291       -9.18272       -0.43903
H          0.72071        0.34745        1.03227
H          0.51476        0.83204       -0.65377
H          1.99452       -0.00330       -0.15422
H         -0.82724       -1.21212       -0.15058
H          0.37962       -1.48062       -1.40197
H          0.38950       -3.38286        0.04349
H          1.91403       -2.51367        0.26204
H          1.06732       -1.53976        2.24701
H          0.63603       -3.26798        3.73296
H          2.76987       -3.92877        1.63843
H          3.00433       -3.36522        3.29121
H          3.19011       -5.95179        2.63781
H          2.37203       -5.54177        4.17485
H         -1.79276       -4.04831        1.87180
H         -2.72509       -6.33850        1.56225
H         -1.29335       -8.31615        1.92893
H          3.13618       -7.98554        2.88515
H          2.72514       -9.60590        2.40768
H          4.08128       -6.59424       -1.60259
H          2.46037       -8.41457       -2.70133

--Link1--
%chk=JID_10233.chk
%mem=8GB
%nprocshared=4
# B3LYP/6-311++G(d,p) empiricaldispersion=gd3bj scf=xqc pop=npa geom=check

CID_80309676_JID_10233_Energie_neutraal

0 1

--Link1--
%chk=JID_10233.chk
%mem=8GB
%nprocshared=4
# B3LYP/6-311++G(d,p) empiricaldispersion=gd3bj scf=xqc pop=npa geom=check

CID_80309676_JID_10233_Energie_kation

1 2

--Link1--
%chk=JID_10233.chk
%mem=8GB
%nprocshared=4
# B3LYP/6-311++G(d,p) empiricaldispersion=gd3bj scf=xqc pop=npa geom=check

CID_80309676_JID_10233_Energie_anion

-1 2
