%chk=JID_2476.chk
%mem=8GB
%nprocshared=4
# opt freq B3LYP/6-31G(d) empiricaldispersion=gd3bj scf=xqc

CID_130832558_JID_2476_neutraal

0 1
C          1.08286        0.00353       -0.05587
C          0.42374        1.33423        0.35671
C          1.13939        2.52251       -0.35357
O          0.95120        2.49326       -1.77664
C         -0.44368        2.58309       -2.08598
C         -1.22400        1.42273       -1.45713
N         -1.02872        1.31241       -0.00163
C          0.56438        1.53077        1.89670
C         -0.01917        0.42656        2.77273
C         -0.28157        1.16482        4.06119
C         -0.76534        2.50624        3.55810
O         -0.09314        2.75401        2.31427
H          1.13295       -0.11810       -1.14295
H          0.53803       -0.85822        0.34577
H          2.11101       -0.05171        0.32037
H          0.78884        3.49298        0.01916
H          2.21905        2.47868       -0.17048
H         -0.54545        2.55177       -3.17540
H         -0.82888        3.55122       -1.74395
H         -0.92598        0.47974       -1.92862
H         -2.29286        1.54798       -1.66139
H         -1.44112        2.13782        0.44422
H          1.62623        1.65741        2.14885
H         -0.96614        0.04802        2.37185
H          0.66190       -0.42011        2.89698
H         -1.00366        0.66770        4.71401
H          0.65594        1.28805        4.61624
H         -1.84167        2.48928        3.35634
H         -0.55453        3.31901        4.25862

--Link1--
%chk=JID_2476.chk
%mem=8GB
%nprocshared=4
# B3LYP/6-311++G(d,p) empiricaldispersion=gd3bj scf=xqc pop=npa geom=check

CID_130832558_JID_2476_Energie_neutraal

0 1

--Link1--
%chk=JID_2476.chk
%mem=8GB
%nprocshared=4
# B3LYP/6-311++G(d,p) empiricaldispersion=gd3bj scf=xqc pop=npa geom=check

CID_130832558_JID_2476_Energie_kation

1 2

--Link1--
%chk=JID_2476.chk
%mem=8GB
%nprocshared=4
# B3LYP/6-311++G(d,p) empiricaldispersion=gd3bj scf=xqc pop=npa geom=check

CID_130832558_JID_2476_Energie_anion

-1 2
