%chk=JID_1031.chk
%mem=8GB
%nprocshared=4
# opt freq B3LYP/6-31G(d) empiricaldispersion=gd3bj scf=xqc

CID_93512834_JID_1031_neutraal

0 1
C         -3.14700       -4.98453       -2.83145
C         -1.64131       -4.83226       -2.97764
C         -1.18378       -3.39943       -3.25284
C         -1.60715       -2.30942       -2.25589
C         -0.89989       -2.22570       -0.87081
C          0.64910       -2.25845       -1.00013
C          1.23761       -1.15982       -1.88256
C         -1.35992       -3.36932        0.09015
N         -0.94526       -3.17507        1.48914
O         -1.18574       -0.94283       -0.24448
C         -2.55242       -0.58219       -0.09366
H         -3.51752       -4.49022       -1.92945
H         -3.41090       -6.04451       -2.75748
H         -3.67017       -4.56604       -3.69701
H         -1.13749       -5.24147       -2.09942
H         -1.31682       -5.45597       -3.82036
H         -0.09685       -3.39724       -3.38365
H         -1.59129       -3.11280       -4.23216
H         -1.45867       -1.34346       -2.75949
H         -2.69237       -2.36522       -2.11083
H          1.09999       -2.12674       -0.00848
H          0.98298       -3.23548       -1.36772
H          0.94939       -0.16525       -1.52872
H          2.33111       -1.21539       -1.86393
H          0.92204       -1.26005       -2.92436
H         -2.45212       -3.44415        0.08625
H         -0.97277       -4.33622       -0.23625
H          0.06107       -3.32304        1.56137
H         -1.06671       -2.18044        1.70152
H         -3.01253       -0.37567       -1.06322
H         -3.12050       -1.34448        0.44388
H         -2.59035        0.34083        0.49215

--Link1--
%chk=JID_1031.chk
%mem=8GB
%nprocshared=4
# B3LYP/6-311++G(d,p) empiricaldispersion=gd3bj scf=xqc pop=npa geom=check

CID_93512834_JID_1031_Energie_neutraal

0 1

--Link1--
%chk=JID_1031.chk
%mem=8GB
%nprocshared=4
# B3LYP/6-311++G(d,p) empiricaldispersion=gd3bj scf=xqc pop=npa geom=check

CID_93512834_JID_1031_Energie_kation

1 2

--Link1--
%chk=JID_1031.chk
%mem=8GB
%nprocshared=4
# B3LYP/6-311++G(d,p) empiricaldispersion=gd3bj scf=xqc pop=npa geom=check

CID_93512834_JID_1031_Energie_anion

-1 2
