%chk=JID_6494.chk
%mem=8GB
%nprocshared=4
# opt freq B3LYP/6-31G(d) empiricaldispersion=gd3bj scf=xqc

CID_151273513_JID_6494_neutraal

0 1
C          1.88900        0.13000       -0.04400
C          1.22024       -1.18286        0.36787
C         -0.14984       -1.36372       -0.27725
C         -0.98812       -0.12753       -0.01486
N         -2.16313       -0.10358        0.54445
N         -2.66640       -1.35009        0.90172
N         -3.85769       -1.25430        1.26901
N         -4.94746       -1.17893        1.59858
C         -0.38551        1.20187       -0.45735
C          0.98290        1.33840        0.22103
N         -0.18250        1.22371       -1.91162
C         -1.18587        1.20938       -2.71502
C         -0.95255        1.26245       -4.20369
C         -2.32412        0.88915       -4.74634
C         -3.30104        1.43918       -3.71474
C         -2.65033        1.12899       -2.37240
H          2.82665        0.24949        0.51089
H          2.15472        0.08894       -1.10716
H          1.11208       -1.20146        1.45944
H          1.86720       -2.02421        0.09478
H         -0.61928       -2.27169        0.10796
H         -0.04876       -1.48406       -1.36165
H         -1.02295        2.03767       -0.14618
H          0.84078        1.43985        1.30483
H          1.48678        2.24903       -0.12417
H         -0.67448        2.28420       -4.48047
H         -0.17222        0.56472       -4.51634
H         -2.41906       -0.20204       -4.80738
H         -2.49856        1.30058       -5.74456
H         -4.29324        0.98664       -3.80276
H         -3.40881        2.52320       -3.83909
H         -2.88968        0.10652       -2.06633
H         -2.94107        1.84073       -1.59811

--Link1--
%chk=JID_6494.chk
%mem=8GB
%nprocshared=4
# B3LYP/6-311++G(d,p) empiricaldispersion=gd3bj scf=xqc pop=npa geom=check

CID_151273513_JID_6494_Energie_neutraal

0 1

--Link1--
%chk=JID_6494.chk
%mem=8GB
%nprocshared=4
# B3LYP/6-311++G(d,p) empiricaldispersion=gd3bj scf=xqc pop=npa geom=check

CID_151273513_JID_6494_Energie_kation

1 2

--Link1--
%chk=JID_6494.chk
%mem=8GB
%nprocshared=4
# B3LYP/6-311++G(d,p) empiricaldispersion=gd3bj scf=xqc pop=npa geom=check

CID_151273513_JID_6494_Energie_anion

-1 2
