%chk=JID_8218.chk
%mem=8GB
%nprocshared=4
# opt freq B3LYP/6-31G(d) empiricaldispersion=gd3bj scf=xqc

CID_68034457_JID_8218_neutraal

0 1
C          1.05678        0.06575       -0.04952
C          0.73161       -1.30146        0.48621
C         -0.07401       -1.49077        1.63042
C         -0.39324       -2.78344        2.09023
C          0.13853       -3.92199        1.43058
C          0.97059       -3.70035        0.31149
C          1.25970       -2.41896       -0.15375
C         -0.20484       -5.20963        1.93914
C         -1.05304       -5.27819        3.05676
C         -1.53163       -4.11532        3.63459
N         -1.20654       -2.89776        3.15640
C         -2.45308       -4.17219        4.83628
C         -1.83421       -3.44568        6.03171
C         -3.82360       -3.58590        4.49409
C          0.26676       -6.54840        1.37466
C         -0.25793       -6.83175       -0.03524
C          1.77792       -6.76115        1.49581
C         -0.67038       -0.29889        2.34767
H          0.14243        0.65038       -0.19344
H          1.55544        0.00723       -1.02315
H          1.72662        0.59188        0.63779
H          1.41128       -4.52490       -0.23593
H          1.89908       -2.30713       -1.02701
H         -1.34150       -6.23849        3.47482
H         -2.60178       -5.22021        5.12659
H         -1.69275       -2.37779        5.83022
H         -2.47660       -3.53742        6.91408
H         -0.85542       -3.86928        6.28308
H         -4.27445       -4.11375        3.64627
H         -4.50578       -3.67504        5.34632
H         -3.75675       -2.52498        4.22763
H         -0.17508       -7.33847        1.99934
H          0.17765       -6.18001       -0.79552
H         -0.02896       -7.86340       -0.32511
H         -1.34597       -6.70865       -0.07723
H          2.11410       -6.58603        2.52393
H          2.03807       -7.79251        1.23242
H          2.35859       -6.10663        0.84244
H         -1.66101       -0.07799        1.93808
H         -0.76079       -0.47809        3.42429
H         -0.04181        0.59125        2.25142

--Link1--
%chk=JID_8218.chk
%mem=8GB
%nprocshared=4
# B3LYP/6-311++G(d,p) empiricaldispersion=gd3bj scf=xqc pop=npa geom=check

CID_68034457_JID_8218_Energie_neutraal

0 1

--Link1--
%chk=JID_8218.chk
%mem=8GB
%nprocshared=4
# B3LYP/6-311++G(d,p) empiricaldispersion=gd3bj scf=xqc pop=npa geom=check

CID_68034457_JID_8218_Energie_kation

1 2

--Link1--
%chk=JID_8218.chk
%mem=8GB
%nprocshared=4
# B3LYP/6-311++G(d,p) empiricaldispersion=gd3bj scf=xqc pop=npa geom=check

CID_68034457_JID_8218_Energie_anion

-1 2
