%chk=JID_5638.chk
%mem=8GB
%nprocshared=4
# opt freq B3LYP/6-31G(d) empiricaldispersion=gd3bj scf=xqc

CID_149569013_JID_5638_neutraal

0 1
C          0.91995        0.03788        0.04643
C          0.36187       -1.25122       -0.53045
C          0.56574       -2.45495        0.38334
C         -0.46683       -3.45634       -0.12871
N         -1.55052       -2.62281       -0.62628
C         -1.15868       -1.22314       -0.71124
C         -2.81481       -3.07991       -0.96254
N         -3.71623       -2.18932       -1.34405
C         -4.99063       -2.60099       -1.68137
C         -5.40356       -3.87707       -1.65007
N         -4.49455       -4.83558       -1.26080
C         -3.21156       -4.49124       -0.91844
N         -2.49266       -5.54780       -0.58606
C         -3.35530       -6.60931       -0.71176
C         -4.60094       -6.19270       -1.12758
H          0.47109        0.27149        1.01776
H          0.72274        0.87838       -0.62686
H          2.00313       -0.03926        0.18583
H          0.83749       -1.45274       -1.49955
H          1.58407       -2.85285        0.34143
H          0.34532       -2.19342        1.42589
H         -0.78119       -4.11447        0.68696
H         -0.05101       -4.05755       -0.94466
H         -1.65068       -0.65300        0.08515
H         -1.42082       -0.77996       -1.67819
H         -5.67254       -1.81058       -1.98391
H         -6.40357       -4.19146       -1.91342
H         -3.03402       -7.62038       -0.49578
H         -5.51665       -6.72717       -1.33220

--Link1--
%chk=JID_5638.chk
%mem=8GB
%nprocshared=4
# B3LYP/6-311++G(d,p) empiricaldispersion=gd3bj scf=xqc pop=npa geom=check

CID_149569013_JID_5638_Energie_neutraal

0 1

--Link1--
%chk=JID_5638.chk
%mem=8GB
%nprocshared=4
# B3LYP/6-311++G(d,p) empiricaldispersion=gd3bj scf=xqc pop=npa geom=check

CID_149569013_JID_5638_Energie_kation

1 2

--Link1--
%chk=JID_5638.chk
%mem=8GB
%nprocshared=4
# B3LYP/6-311++G(d,p) empiricaldispersion=gd3bj scf=xqc pop=npa geom=check

CID_149569013_JID_5638_Energie_anion

-1 2
