%chk=JID_10935.chk
%mem=8GB
%nprocshared=4
# opt freq B3LYP/6-31G(d) empiricaldispersion=gd3bj scf=xqc

CID_63777849_JID_10935_neutraal

0 1
C          2.49200        0.00400       -0.01400
C          0.99175        0.07938       -0.02923
C          0.17679       -1.03586       -0.29253
C         -1.21839       -0.90656       -0.29513
C         -1.81304        0.32878       -0.03192
C         -1.02606        1.45236        0.24335
C          0.37139        1.31385        0.23516
N         -1.59435        2.72795        0.50127
C         -1.61282        3.53695       -0.73253
C         -1.97717        4.98510       -0.41596
N         -3.33690        5.06834        0.12884
C         -3.57384        4.12565        1.16015
C         -4.68650        4.26035        2.01605
C         -4.93494        3.36209        3.05695
C         -4.07442        2.29770        3.27215
C         -2.98289        2.11497        2.42619
C         -2.73147        2.98203        1.33988
C         -3.86487        6.42006        0.28605
C          0.75406       -2.37264       -0.57354
O          0.05511       -3.34909       -0.82009
H          2.83011       -0.68676        0.76496
H          2.86661       -0.32622       -0.98814
H          2.94323        0.97998        0.19485
H         -1.85070       -1.76787       -0.50342
H         -2.89733        0.41239       -0.05020
H          0.97823        2.19031        0.45693
H         -2.32988        3.11656       -1.45205
H         -0.62504        3.53416       -1.21134
H         -1.25945        5.41919        0.29297
H         -1.91941        5.56987       -1.34177
H         -5.39199        5.07501        1.88930
H         -5.79850        3.50455        3.70092
H         -4.24998        1.60576        4.09090
H         -2.31564        1.27963        2.62291
H         -4.95874        6.42793        0.24372
H         -3.52845        6.87369        1.22505
H         -3.52450        7.06292       -0.53387
H          1.85076       -2.46476       -0.55411

--Link1--
%chk=JID_10935.chk
%mem=8GB
%nprocshared=4
# B3LYP/6-311++G(d,p) empiricaldispersion=gd3bj scf=xqc pop=npa geom=check

CID_63777849_JID_10935_Energie_neutraal

0 1

--Link1--
%chk=JID_10935.chk
%mem=8GB
%nprocshared=4
# B3LYP/6-311++G(d,p) empiricaldispersion=gd3bj scf=xqc pop=npa geom=check

CID_63777849_JID_10935_Energie_kation

1 2

--Link1--
%chk=JID_10935.chk
%mem=8GB
%nprocshared=4
# B3LYP/6-311++G(d,p) empiricaldispersion=gd3bj scf=xqc pop=npa geom=check

CID_63777849_JID_10935_Energie_anion

-1 2
