%chk=JID_5957.chk
%mem=8GB
%nprocshared=4
# opt freq B3LYP/6-31G(d) empiricaldispersion=gd3bj scf=xqc

CID_51076698_JID_5957_neutraal

0 1
C          0.91671       -0.01763       -0.05246
C          0.67833        1.48802        0.02721
C          1.29648        2.19676       -1.17763
O          0.63411        2.40815       -2.19736
N          2.64033        2.56909       -1.11671
C          3.62007        2.05141       -0.15034
C          4.77431        3.03411        0.07309
O          5.37846        3.40948       -1.17049
C          4.41720        4.06155       -2.01236
C          3.24457        3.13145       -2.33251
N         -0.74436        1.78538        0.17216
C         -1.76220        1.58692       -0.71147
N         -2.90846        1.87488       -0.13834
C         -2.53755        2.24781        1.11977
N         -1.22655        2.19316        1.36834
H          0.47181       -0.44339       -0.95929
H          0.47392       -0.53114        0.80805
H          1.98402       -0.25631       -0.07416
H          1.13448        1.88469        0.94015
H          4.00759        1.11986       -0.57996
H          3.15684        1.81079        0.80702
H          4.42809        3.93644        0.59097
H          5.54607        2.56769        0.69337
H          4.92498        4.35514       -2.93634
H          4.07012        4.97564       -1.51600
H          3.59606        2.27801       -2.92493
H          2.49872        3.67079       -2.92523
H         -1.62002        1.24177       -1.72678
H         -3.24364        2.56018        1.87841

--Link1--
%chk=JID_5957.chk
%mem=8GB
%nprocshared=4
# B3LYP/6-311++G(d,p) empiricaldispersion=gd3bj scf=xqc pop=npa geom=check

CID_51076698_JID_5957_Energie_neutraal

0 1

--Link1--
%chk=JID_5957.chk
%mem=8GB
%nprocshared=4
# B3LYP/6-311++G(d,p) empiricaldispersion=gd3bj scf=xqc pop=npa geom=check

CID_51076698_JID_5957_Energie_kation

1 2

--Link1--
%chk=JID_5957.chk
%mem=8GB
%nprocshared=4
# B3LYP/6-311++G(d,p) empiricaldispersion=gd3bj scf=xqc pop=npa geom=check

CID_51076698_JID_5957_Energie_anion

-1 2
