%chk=JID_4200.chk
%mem=8GB
%nprocshared=4
# opt freq B3LYP/6-31G(d) empiricaldispersion=gd3bj scf=xqc

CID_126556163_JID_4200_neutraal

0 1
C          1.01836       -0.08034        0.05664
C          1.34357       -1.56512        0.29980
C          2.75426       -1.68080        0.92931
C          0.38312       -2.06528        1.41896
N          1.24020       -2.43717       -0.89729
C         -0.11842       -2.74552       -1.37645
C         -0.38396       -1.77081       -2.50468
C          0.96943       -1.63168       -3.19898
C          1.99365       -2.15717       -2.15016
C          3.36452       -1.47286       -2.12854
C          4.01015       -1.32572       -3.50893
C          3.54283       -0.08299       -4.26237
C          2.10301       -0.14339       -4.76046
N          1.10483       -0.26727       -3.70650
H          1.16957        0.50179        0.97416
H         -0.02611        0.06391       -0.23488
H          1.64807        0.37501       -0.70873
H          2.76592       -1.28858        1.95409
H          3.08035       -2.72612        0.98421
H          3.51388       -1.10876        0.39546
H         -0.66724       -1.84735        1.20005
H          0.48854       -3.14436        1.58182
H          0.59410       -1.57075        2.37540
H         -0.11464       -3.76969       -1.77324
H         -0.91520       -2.72334       -0.63197
H         -0.74349       -0.81556       -2.10738
H         -1.15273       -2.14252       -3.19119
H          0.95834       -2.33161       -4.04675
H          2.23939       -3.17099       -2.50846
H          3.32261       -0.48666       -1.66134
H          4.03989       -2.09111       -1.52385
H          5.09378       -1.23086       -3.36292
H          3.85541       -2.22700       -4.11336
H          3.68078        0.80559       -3.63310
H          4.19586        0.05710       -5.13298
H          1.89641        0.79220       -5.29402
H          1.98825       -0.93867       -5.50680
H          1.31057        0.37241       -2.94130

--Link1--
%chk=JID_4200.chk
%mem=8GB
%nprocshared=4
# B3LYP/6-311++G(d,p) empiricaldispersion=gd3bj scf=xqc pop=npa geom=check

CID_126556163_JID_4200_Energie_neutraal

0 1

--Link1--
%chk=JID_4200.chk
%mem=8GB
%nprocshared=4
# B3LYP/6-311++G(d,p) empiricaldispersion=gd3bj scf=xqc pop=npa geom=check

CID_126556163_JID_4200_Energie_kation

1 2

--Link1--
%chk=JID_4200.chk
%mem=8GB
%nprocshared=4
# B3LYP/6-311++G(d,p) empiricaldispersion=gd3bj scf=xqc pop=npa geom=check

CID_126556163_JID_4200_Energie_anion

-1 2
