%chk=JID_4700.chk
%mem=8GB
%nprocshared=4
# opt freq B3LYP/6-31G(d) empiricaldispersion=gd3bj scf=xqc

CID_61589752_JID_4700_neutraal

0 1
C          0.99753        0.01476        0.09887
C          1.05501        0.96657       -1.09131
C          1.07830        0.38544       -2.56554
C         -0.06159       -0.66299       -2.65750
C          0.63995        1.60798       -3.47686
N          1.52054        2.78255       -3.44784
N          2.33111       -0.28903       -3.00716
C          3.43319       -0.51372       -2.07103
C          3.43641       -1.93134       -1.44362
C          3.65482       -3.05497       -2.45901
C          4.52027       -2.01163       -0.36333
C          2.72459       -0.48126       -4.41724
C          1.68680       -1.13635       -5.33314
C          3.34122        0.75276       -5.08547
H          0.24348       -0.76634       -0.02096
H          0.73158        0.58119        0.99906
H          1.96074       -0.44698        0.30933
H          0.15823        1.59650       -0.99615
H          1.89528        1.65544       -0.94166
H         -0.97157       -0.29938       -2.16474
H         -0.34557       -0.88759       -3.68836
H          0.21744       -1.60810       -2.17798
H          0.51360        1.29941       -4.51629
H         -0.35876        1.94213       -3.16435
H          1.10846        3.52501       -4.00915
H          1.59342        3.14202       -2.49915
H          4.39808       -0.36160       -2.57584
H          3.45549        0.24554       -1.28528
H          2.47047       -2.12117       -0.96363
H          4.58265       -2.90946       -3.02198
H          3.71842       -4.02567       -1.95487
H          2.82311       -3.11775       -3.16644
H          4.36147       -1.25136        0.40844
H          4.50828       -2.99016        0.12858
H          5.51752       -1.85906       -0.78997
H          3.54164       -1.21473       -4.41616
H          0.84948       -0.47963       -5.57523
H          2.15253       -1.41765       -6.28526
H          1.29644       -2.05763       -4.88854
H          4.00986        1.28992       -4.40487
H          3.94435        0.44587       -5.94841
H          2.58846        1.44707       -5.46427

--Link1--
%chk=JID_4700.chk
%mem=8GB
%nprocshared=4
# B3LYP/6-311++G(d,p) empiricaldispersion=gd3bj scf=xqc pop=npa geom=check

CID_61589752_JID_4700_Energie_neutraal

0 1

--Link1--
%chk=JID_4700.chk
%mem=8GB
%nprocshared=4
# B3LYP/6-311++G(d,p) empiricaldispersion=gd3bj scf=xqc pop=npa geom=check

CID_61589752_JID_4700_Energie_kation

1 2

--Link1--
%chk=JID_4700.chk
%mem=8GB
%nprocshared=4
# B3LYP/6-311++G(d,p) empiricaldispersion=gd3bj scf=xqc pop=npa geom=check

CID_61589752_JID_4700_Energie_anion

-1 2
