%chk=JID_5550.chk
%mem=8GB
%nprocshared=4
# opt freq B3LYP/6-31G(d) empiricaldispersion=gd3bj scf=xqc

CID_154173004_JID_5550_neutraal

0 1
C          2.54100        1.06400        0.00800
C          1.18238        0.46006       -0.25077
C         -0.05927        1.17409       -0.24911
C         -1.25099        0.36744       -0.25021
C         -1.17102       -1.02660       -0.52447
C          0.05573       -1.66077       -0.67371
C          1.21532       -0.92910       -0.49825
C         -2.39028       -1.86744       -0.69488
O         -3.30336       -1.49210       -1.42509
C         -2.44426       -3.18828        0.02839
C         -2.62317        0.90812        0.08379
C         -0.11289        2.74586       -0.25600
C         -1.34479        3.33062       -1.00738
C         -0.12138        3.26550        1.19488
C          1.07792        3.41483       -1.00269
H          2.95828        1.49181       -0.90737
H          2.50158        1.80035        0.81357
H          3.25001        0.30347        0.35818
H          0.12469       -2.72022       -0.90258
H          2.16937       -1.45167       -0.56031
H         -2.16397       -3.99275       -0.65595
H         -1.77934       -3.19164        0.89656
H         -3.46262       -3.35172        0.39301
H         -2.56908        1.70132        0.83104
H         -3.13856        1.25119       -0.81733
H         -3.24823        0.15045        0.56955
H         -2.26211        3.30916       -0.41723
H         -1.21418        4.39529       -1.23924
H         -1.51584        2.81244       -1.95767
H          0.77514        2.95615        1.74193
H         -0.16013        4.36078        1.22027
H         -0.98165        2.89463        1.76012
H          1.99501        3.43891       -0.41169
H          1.27638        2.92269       -1.96137
H          0.88242        4.47323       -1.21726

--Link1--
%chk=JID_5550.chk
%mem=8GB
%nprocshared=4
# B3LYP/6-311++G(d,p) empiricaldispersion=gd3bj scf=xqc pop=npa geom=check

CID_154173004_JID_5550_Energie_neutraal

0 1

--Link1--
%chk=JID_5550.chk
%mem=8GB
%nprocshared=4
# B3LYP/6-311++G(d,p) empiricaldispersion=gd3bj scf=xqc pop=npa geom=check

CID_154173004_JID_5550_Energie_kation

1 2

--Link1--
%chk=JID_5550.chk
%mem=8GB
%nprocshared=4
# B3LYP/6-311++G(d,p) empiricaldispersion=gd3bj scf=xqc pop=npa geom=check

CID_154173004_JID_5550_Energie_anion

-1 2
