%chk=JID_7999.chk
%mem=8GB
%nprocshared=4
# opt freq B3LYP/6-31G(d) empiricaldispersion=gd3bj scf=xqc

CID_2394019_JID_7999_neutraal

0 1
C          1.34400       -0.22500        0.03600
C          0.85826        1.06953       -0.13354
C         -0.50734        1.28309       -0.32446
C         -1.40232        0.20253       -0.34556
C         -0.90176       -1.09516       -0.17065
C          0.46534       -1.30662        0.01804
C         -2.87616        0.43833       -0.55657
N         -3.45397        1.14960        0.56778
C         -3.92304        2.43736        0.59884
O         -4.06933        3.02498        1.66552
C         -4.25455        3.12488       -0.66417
C         -3.66728        4.36346       -0.92857
C         -3.97863        5.02054       -2.11245
C         -4.87730        4.46956       -3.02424
C         -5.48180        3.24201       -2.74306
C         -5.17648        2.56865       -1.55914
O         -3.37459        6.21955       -2.34985
H          2.40772       -0.39061        0.18550
H          1.54189        1.91445       -0.11464
H         -0.87216        2.30041       -0.45188
H         -1.57155       -1.95211       -0.17976
H          0.84566       -2.31600        0.15269
H         -3.01380        0.97343       -1.49932
H         -3.41252       -0.51369       -0.63290
H         -3.22524        0.79758        1.48962
H         -2.97587        4.80963       -0.21899
H         -5.12336        4.98240       -3.94923
H         -6.19520        2.81418       -3.44320
H         -5.66096        1.62271       -1.33149
H         -3.71785        6.58575       -3.18135

--Link1--
%chk=JID_7999.chk
%mem=8GB
%nprocshared=4
# B3LYP/6-311++G(d,p) empiricaldispersion=gd3bj scf=xqc pop=npa geom=check

CID_2394019_JID_7999_Energie_neutraal

0 1

--Link1--
%chk=JID_7999.chk
%mem=8GB
%nprocshared=4
# B3LYP/6-311++G(d,p) empiricaldispersion=gd3bj scf=xqc pop=npa geom=check

CID_2394019_JID_7999_Energie_kation

1 2

--Link1--
%chk=JID_7999.chk
%mem=8GB
%nprocshared=4
# B3LYP/6-311++G(d,p) empiricaldispersion=gd3bj scf=xqc pop=npa geom=check

CID_2394019_JID_7999_Energie_anion

-1 2
