%chk=JID_3853.chk
%mem=8GB
%nprocshared=4
# opt freq B3LYP/6-31G(d) empiricaldispersion=gd3bj scf=xqc

CID_84577_JID_3853_neutraal

0 1
C          0.94860       -0.06155        0.05975
C          0.46905        1.32860        0.36081
C          1.23328        2.43872       -0.03120
C          0.75116        3.71197        0.23191
C         -0.48509        3.89439        0.86900
C         -1.26043        2.80922        1.24924
C         -0.77871        1.52412        0.98669
C         -0.76250        5.37165        1.02946
C          0.48878        5.95677        0.39143
C          1.33957        5.01733       -0.05780
C          2.64775        5.20327       -0.73023
C         -0.85884        5.77209        2.50413
C         -2.01535        5.80033        0.26081
H          0.57002       -0.38463       -0.91480
H          0.60650       -0.76598        0.82518
H          2.04278       -0.10366        0.04606
H          2.18715        2.30370       -0.53110
H         -2.21991        2.94772        1.73648
H         -1.38219        0.66540        1.27419
H          0.66108        7.02209        0.31447
H          3.45131        4.73708       -0.15102
H          2.63624        4.75830       -1.73043
H          2.89050        6.26535       -0.84121
H         -0.96901        6.85733        2.61270
H         -1.72142        5.30014        2.98884
H          0.03387        5.47207        3.06660
H         -1.95849        5.52116       -0.79849
H         -2.91544        5.32924        0.67265
H         -2.15664        6.88632        0.30957

--Link1--
%chk=JID_3853.chk
%mem=8GB
%nprocshared=4
# B3LYP/6-311++G(d,p) empiricaldispersion=gd3bj scf=xqc pop=npa geom=check

CID_84577_JID_3853_Energie_neutraal

0 1

--Link1--
%chk=JID_3853.chk
%mem=8GB
%nprocshared=4
# B3LYP/6-311++G(d,p) empiricaldispersion=gd3bj scf=xqc pop=npa geom=check

CID_84577_JID_3853_Energie_kation

1 2

--Link1--
%chk=JID_3853.chk
%mem=8GB
%nprocshared=4
# B3LYP/6-311++G(d,p) empiricaldispersion=gd3bj scf=xqc pop=npa geom=check

CID_84577_JID_3853_Energie_anion

-1 2
