%chk=JID_7361.chk
%mem=8GB
%nprocshared=4
# opt freq B3LYP/6-31G(d) empiricaldispersion=gd3bj scf=xqc

CID_114122394_JID_7361_neutraal

0 1
C          2.54100       -1.13900        0.05100
C          1.07886       -0.84752        0.20703
C          0.29929       -1.58463        1.10390
C         -1.07801       -1.36288        1.19510
C         -1.68908       -0.31771        0.45703
C         -0.90368        0.40091       -0.44605
C          0.46307        0.13033       -0.58034
N         -3.06232       -0.09175        0.69313
C         -3.82633        0.91478       -0.06056
C         -4.11951        0.41173       -1.48867
C         -5.09641       -0.76286       -1.51990
C         -6.40039       -0.42731       -0.80712
C         -6.15265        0.04620        0.62348
C         -5.17390        1.22821        0.65866
S         -4.91174        1.96016        2.34180
C         -5.22044        0.55563        3.44468
N         -1.84228       -2.04821        2.17525
H          2.96619       -1.52327        0.98415
H          2.69219       -1.88205       -0.73803
H          3.09447       -0.22996       -0.20701
H          0.76369       -2.34329        1.72799
H         -1.32143        1.19851       -1.05021
H          1.04797        0.70727       -1.29325
H         -3.12167        0.09522        1.69860
H         -3.25478        1.85011       -0.11834
H         -4.54606        1.23921       -2.07053
H         -3.20144        0.11539       -2.00613
H         -4.63614       -1.64201       -1.05287
H         -5.30848       -1.03325       -2.56066
H         -7.05111       -1.30905       -0.79560
H         -6.93191        0.35385       -1.36434
H         -5.76458       -0.80205        1.19910
H         -7.11292        0.33338        1.06823
H         -5.64177        2.04688        0.09523
H         -6.27180        0.25991        3.40890
H         -4.58235       -0.29721        3.20587
H         -4.99694        0.86525        4.46965
H         -1.49603       -2.98831        2.33523
H         -2.81451       -2.04959        1.86370

--Link1--
%chk=JID_7361.chk
%mem=8GB
%nprocshared=4
# B3LYP/6-311++G(d,p) empiricaldispersion=gd3bj scf=xqc pop=npa geom=check

CID_114122394_JID_7361_Energie_neutraal

0 1

--Link1--
%chk=JID_7361.chk
%mem=8GB
%nprocshared=4
# B3LYP/6-311++G(d,p) empiricaldispersion=gd3bj scf=xqc pop=npa geom=check

CID_114122394_JID_7361_Energie_kation

1 2

--Link1--
%chk=JID_7361.chk
%mem=8GB
%nprocshared=4
# B3LYP/6-311++G(d,p) empiricaldispersion=gd3bj scf=xqc pop=npa geom=check

CID_114122394_JID_7361_Energie_anion

-1 2
