%chk=JID_6656.chk
%mem=8GB
%nprocshared=4
# opt freq B3LYP/6-31G(d) empiricaldispersion=gd3bj scf=xqc

CID_104569063_JID_6656_neutraal

0 1
C          0.94980        0.02307        0.08335
C          0.65575       -1.36434        0.64546
C          0.99423       -1.38909        2.15523
O          0.08965       -1.26207        2.98798
N          2.33172       -1.48890        2.53528
C          3.40838       -1.90878        1.65007
C          2.62654       -1.55802        3.95875
N         -0.76946       -1.66991        0.48857
C         -1.40331       -2.45663       -0.42303
O         -2.63494       -2.50602       -0.41736
C         -0.60196       -3.25406       -1.43350
S         -0.07604       -2.23975       -2.84991
C         -1.69906       -1.69463       -3.48856
C         -2.59990       -2.78168       -4.02569
O         -3.76471       -2.61245       -4.35996
O         -2.03931       -3.99136       -4.20636
H          0.37250        0.79006        0.61324
H          0.68400        0.08988       -0.97542
H          2.00678        0.28680        0.18441
H          1.23425       -2.12796        0.12595
H          4.34547       -1.44791        1.97633
H          3.49624       -2.99786        1.70487
H          3.23156       -1.62089        0.61396
H          1.84661       -1.08145        4.55876
H          2.70578       -2.61002        4.24877
H          3.57457       -1.04901        4.15621
H         -1.38866       -1.24211        1.17263
H          0.27747       -3.69203       -0.95372
H         -1.20698       -4.10012       -1.77265
H         -2.22926       -1.14079       -2.70981
H         -1.49674       -1.00792       -4.31661
H         -2.76613       -4.53007       -4.58384

--Link1--
%chk=JID_6656.chk
%mem=8GB
%nprocshared=4
# B3LYP/6-311++G(d,p) empiricaldispersion=gd3bj scf=xqc pop=npa geom=check

CID_104569063_JID_6656_Energie_neutraal

0 1

--Link1--
%chk=JID_6656.chk
%mem=8GB
%nprocshared=4
# B3LYP/6-311++G(d,p) empiricaldispersion=gd3bj scf=xqc pop=npa geom=check

CID_104569063_JID_6656_Energie_kation

1 2

--Link1--
%chk=JID_6656.chk
%mem=8GB
%nprocshared=4
# B3LYP/6-311++G(d,p) empiricaldispersion=gd3bj scf=xqc pop=npa geom=check

CID_104569063_JID_6656_Energie_anion

-1 2
