%chk=JID_10560.chk
%mem=8GB
%nprocshared=4
# opt freq B3LYP/6-31G(d) empiricaldispersion=gd3bj scf=xqc

CID_116605643_JID_10560_neutraal

0 1
C          3.06900        0.39100        0.00800
C          1.65146       -0.01391       -0.29610
C          0.59438        0.66698        0.33384
C         -0.74573        0.32741        0.09319
C         -1.01890       -0.71351       -0.80674
C          0.02631       -1.38784       -1.45545
C          1.36477       -1.05699       -1.19728
C          2.45899       -1.80431       -1.90948
C         -2.41502       -1.09483       -1.12165
O         -3.19489       -0.26398       -1.57642
C         -2.87645       -2.49220       -0.89282
C         -2.23012       -3.40892       -0.15557
C         -2.71613       -4.77865        0.07638
C         -3.49292       -5.47667       -0.85517
C         -3.90008       -6.79259       -0.60242
C         -3.56859       -7.42736        0.59499
C         -2.72882       -6.76157        1.48796
C         -2.32007       -5.44547        1.24175
N         -3.87016       -8.78067        0.78410
C         -1.84028        1.10147        0.77272
H          3.59089        0.67362       -0.91168
H          3.10588        1.25286        0.68270
H          3.60196       -0.43271        0.49315
H          0.82024        1.48063        1.02230
H         -0.20599       -2.17173       -2.17412
H          3.16330       -2.23103       -1.18836
H          2.05895       -2.63400       -2.50210
H          2.99330       -1.13454       -2.59052
H         -3.84140       -2.69880       -1.34559
H         -1.29655       -3.16404        0.34524
H         -3.77518       -5.02323       -1.80173
H         -4.47794       -7.31849       -1.35791
H         -2.38161       -7.26124        2.38840
H         -1.68132       -4.95335        1.97177
H         -3.87923       -9.06422        1.75884
H         -4.70314       -9.08536        0.29005
H         -1.44699        1.70467        1.59816
H         -2.32314        1.77803        0.06086
H         -2.58712        0.42522        1.20102

--Link1--
%chk=JID_10560.chk
%mem=8GB
%nprocshared=4
# B3LYP/6-311++G(d,p) empiricaldispersion=gd3bj scf=xqc pop=npa geom=check

CID_116605643_JID_10560_Energie_neutraal

0 1

--Link1--
%chk=JID_10560.chk
%mem=8GB
%nprocshared=4
# B3LYP/6-311++G(d,p) empiricaldispersion=gd3bj scf=xqc pop=npa geom=check

CID_116605643_JID_10560_Energie_kation

1 2

--Link1--
%chk=JID_10560.chk
%mem=8GB
%nprocshared=4
# B3LYP/6-311++G(d,p) empiricaldispersion=gd3bj scf=xqc pop=npa geom=check

CID_116605643_JID_10560_Energie_anion

-1 2
