%chk=JID_10685.chk
%mem=8GB
%nprocshared=4
# opt freq B3LYP/6-31G(d) empiricaldispersion=gd3bj scf=xqc

CID_63780967_JID_10685_neutraal

0 1
C          0.98783        0.07129       -0.06907
C          0.36277        0.86267        1.07398
C          0.97941        2.25385        1.29397
N          0.25738        2.91068        2.40546
C         -0.49066        4.13561        1.95859
C         -0.74202        4.04150        0.46309
S          0.77180        3.31097       -0.17009
C         -1.83656        4.28595        2.64186
O         -2.52681        5.29481        2.62833
O         -2.30449        3.15598        3.21411
S          1.10546        3.12576        3.86647
O          2.39761        3.66862        3.49571
O          0.24746        3.92309        4.72286
C          1.26523        1.54924        4.58049
C          2.43371        0.89108        4.70349
N          2.29073       -0.31171        5.36321
C          1.02988       -0.64190        5.78852
O          0.70627       -1.64661        6.39576
S         -0.05994        0.64223        5.29447
C          3.80405        1.26660        4.24303
H          0.76924        0.51672       -1.04367
H          0.58726       -0.94777       -0.07860
H          2.07405        0.00479        0.04890
H         -0.72009        0.93811        0.90945
H          0.48206        0.27442        1.99182
H          2.05058        2.15722        1.48958
H          0.10955        5.02693        2.18531
H         -1.58671        3.38777        0.22000
H         -0.92718        5.02210        0.01472
H         -3.13963        3.42602        3.64933
H          3.05778       -0.93869        5.56959
H          4.47631        0.40113        4.26116
H          3.79795        1.62500        3.21016
H          4.23387        2.03249        4.89564

--Link1--
%chk=JID_10685.chk
%mem=8GB
%nprocshared=4
# B3LYP/6-311++G(d,p) empiricaldispersion=gd3bj scf=xqc pop=npa geom=check

CID_63780967_JID_10685_Energie_neutraal

0 1

--Link1--
%chk=JID_10685.chk
%mem=8GB
%nprocshared=4
# B3LYP/6-311++G(d,p) empiricaldispersion=gd3bj scf=xqc pop=npa geom=check

CID_63780967_JID_10685_Energie_kation

1 2

--Link1--
%chk=JID_10685.chk
%mem=8GB
%nprocshared=4
# B3LYP/6-311++G(d,p) empiricaldispersion=gd3bj scf=xqc pop=npa geom=check

CID_63780967_JID_10685_Energie_anion

-1 2
