%chk=JID_5729.chk
%mem=8GB
%nprocshared=4
# opt freq B3LYP/6-31G(d) empiricaldispersion=gd3bj scf=xqc

CID_80587101_JID_5729_neutraal

0 1
C          0.95784       -0.05947       -0.06845
C          0.33451       -1.40731       -0.21420
N          1.12468       -2.47803       -0.16295
S          0.20754       -3.83322       -0.38050
C         -1.31563       -3.03585       -0.54023
C         -1.06035       -1.67689       -0.41321
C         -2.06867       -0.66746       -0.49000
N         -2.87563        0.16502       -0.54591
N         -2.51858       -3.63705       -0.77490
C         -2.75565       -5.07587       -0.69918
C         -3.41904       -5.46477        0.62952
C         -3.71024       -6.96202        0.71380
C         -4.78088       -7.14045        1.78003
C         -5.89988       -6.17402        1.43339
S         -5.05985       -4.67387        0.85524
H          0.56835        0.44499        0.82167
H          0.73825        0.55931       -0.94448
H          2.04645       -0.12634        0.03094
H         -3.38233       -3.09690       -0.68118
H         -3.40966       -5.34959       -1.53688
H         -1.83831       -5.65702       -0.84193
H         -2.79103       -5.15499        1.47298
H         -4.07201       -7.35148       -0.24692
H         -2.80404       -7.52241        0.96803
H         -5.14821       -8.17157        1.80765
H         -4.37099       -6.91347        2.77232
H         -6.52040       -6.56529        0.62106
H         -6.53966       -5.96189        2.29407

--Link1--
%chk=JID_5729.chk
%mem=8GB
%nprocshared=4
# B3LYP/6-311++G(d,p) empiricaldispersion=gd3bj scf=xqc pop=npa geom=check

CID_80587101_JID_5729_Energie_neutraal

0 1

--Link1--
%chk=JID_5729.chk
%mem=8GB
%nprocshared=4
# B3LYP/6-311++G(d,p) empiricaldispersion=gd3bj scf=xqc pop=npa geom=check

CID_80587101_JID_5729_Energie_kation

1 2

--Link1--
%chk=JID_5729.chk
%mem=8GB
%nprocshared=4
# B3LYP/6-311++G(d,p) empiricaldispersion=gd3bj scf=xqc pop=npa geom=check

CID_80587101_JID_5729_Energie_anion

-1 2
