%chk=JID_10678.chk
%mem=8GB
%nprocshared=4
# opt freq B3LYP/6-31G(d) empiricaldispersion=gd3bj scf=xqc

CID_110488448_JID_10678_neutraal

0 1
C          1.34400       -0.22500        0.03600
C          0.82432        1.06102        0.21122
C         -0.55710        1.25496        0.32338
C         -1.41531        0.15251        0.26244
C         -0.89386       -1.13231        0.08505
C          0.49077       -1.33577       -0.02465
C          1.05376       -2.71510       -0.26765
N          0.60836       -3.66215        0.73873
C         -0.28508       -4.69339        0.60131
O         -0.82324       -5.18397        1.58869
C         -0.62039       -5.21307       -0.73234
C          0.35766       -5.57185       -1.66325
C         -0.02286       -6.07186       -2.90746
C         -1.39327       -6.10912       -3.17632
N         -2.36763       -5.80717       -2.28297
C         -1.95492       -5.38362       -1.06625
N          0.93419       -6.28400       -3.90705
C         -1.06210        2.63859        0.49407
O         -0.37863        3.64398        0.55318
O         -2.40284        2.69951        0.57689
H          2.42124       -0.34741       -0.05883
H          1.50131        1.91250        0.25315
H         -2.49207        0.28063        0.34531
H         -1.58106       -1.97446        0.02944
H          0.77513       -3.02286       -1.27733
H          2.14724       -2.69964       -0.20620
H          0.73322       -3.38196        1.70475
H          1.40875       -5.46266       -1.41444
H         -1.76002       -6.40146       -4.15668
H         -2.74846       -5.15755       -0.35868
H          0.62338       -6.90200       -4.65240
H          1.85018       -6.54902       -3.55610
H         -2.58940        3.65604        0.68071

--Link1--
%chk=JID_10678.chk
%mem=8GB
%nprocshared=4
# B3LYP/6-311++G(d,p) empiricaldispersion=gd3bj scf=xqc pop=npa geom=check

CID_110488448_JID_10678_Energie_neutraal

0 1

--Link1--
%chk=JID_10678.chk
%mem=8GB
%nprocshared=4
# B3LYP/6-311++G(d,p) empiricaldispersion=gd3bj scf=xqc pop=npa geom=check

CID_110488448_JID_10678_Energie_kation

1 2

--Link1--
%chk=JID_10678.chk
%mem=8GB
%nprocshared=4
# B3LYP/6-311++G(d,p) empiricaldispersion=gd3bj scf=xqc pop=npa geom=check

CID_110488448_JID_10678_Energie_anion

-1 2
