%chk=JID_7529.chk
%mem=8GB
%nprocshared=4
# opt freq B3LYP/6-31G(d) empiricaldispersion=gd3bj scf=xqc

CID_78918677_JID_7529_neutraal

0 1
C          1.09799        0.01967       -0.00339
C          0.11311        1.15910        0.29986
C          0.43381        2.34357       -0.63509
C         -1.31013        0.67137       -0.01787
C          0.22927        1.66613        1.76747
N          0.30568        0.61973        2.79286
C          1.62679        0.35011        3.34634
C         -0.88258        0.15192        3.35733
O         -1.98430        0.54893        2.96607
C         -0.80640       -0.87599        4.48132
C         -1.02930       -2.30198        4.02307
C         -0.27294       -2.84745        2.97256
C         -0.45289       -4.17123        2.56487
C         -1.38868       -4.97631        3.20674
C         -2.14188       -4.45927        4.25890
C         -1.95508       -3.13526        4.66246
O         -2.68111       -2.64127        5.70979
H          1.04900       -0.27183       -1.05915
H          0.88013       -0.87460        0.58712
H          2.12999        0.32268        0.20335
H          0.34760        2.05543       -1.68897
H         -0.25059        3.18144       -0.46093
H          1.45551        2.70747       -0.47602
H         -1.55845       -0.23830        0.53747
H         -2.05567        1.43687        0.22391
H         -1.41639        0.43520       -1.08325
H          1.12446        2.29312        1.87469
H         -0.61834        2.32527        1.99564
H          1.80084        1.04452        4.17346
H          1.71128       -0.67392        3.71154
H          2.39417        0.49697        2.58156
H          0.12738       -0.81338        5.04506
H         -1.57822       -0.57102        5.19930
H          0.46593       -2.24649        2.45142
H          0.13889       -4.57085        1.74518
H         -1.52849       -6.00612        2.88941
H         -2.86168       -5.10150        4.75648
H         -3.36689       -3.28720        5.94459

--Link1--
%chk=JID_7529.chk
%mem=8GB
%nprocshared=4
# B3LYP/6-311++G(d,p) empiricaldispersion=gd3bj scf=xqc pop=npa geom=check

CID_78918677_JID_7529_Energie_neutraal

0 1

--Link1--
%chk=JID_7529.chk
%mem=8GB
%nprocshared=4
# B3LYP/6-311++G(d,p) empiricaldispersion=gd3bj scf=xqc pop=npa geom=check

CID_78918677_JID_7529_Energie_kation

1 2

--Link1--
%chk=JID_7529.chk
%mem=8GB
%nprocshared=4
# B3LYP/6-311++G(d,p) empiricaldispersion=gd3bj scf=xqc pop=npa geom=check

CID_78918677_JID_7529_Energie_anion

-1 2
