%chk=JID_10500.chk
%mem=8GB
%nprocshared=4
# opt freq B3LYP/6-31G(d) empiricaldispersion=gd3bj scf=xqc

CID_65264000_JID_10500_neutraal

0 1
C          0.97275       -0.02450       -0.09304
C          1.17595       -0.79987        1.22221
C          0.37873       -0.12894        2.35131
C          0.59062       -2.23578        1.10819
O          0.89071       -3.19598        1.80725
O         -0.40251       -2.37125        0.20584
N          2.61531       -0.96056        1.55170
C          3.48233        0.22925        1.49648
C          3.30634        1.11214        2.73241
O          3.42763        0.62926        3.86584
N          2.84961        2.39711        2.64480
C          2.65145        3.23243        1.53460
C          1.55666        4.12544        1.57679
C          1.19907        4.98250        0.50896
C          1.92562        5.05514       -0.68916
C          3.08024        4.24183       -0.76746
N          3.92775        4.19402       -1.80587
S          5.13716        3.14239       -1.37840
N          4.63523        2.69124        0.13708
C          3.46840        3.31952        0.36831
H         -0.08220       -0.00957       -0.39131
H          1.53274       -0.48606       -0.91459
H          1.27568        1.02298       -0.01120
H          0.59328        0.93862        2.43465
H         -0.70042       -0.22329        2.17756
H          0.58385       -0.59790        3.32087
H         -0.65419       -3.31500        0.29023
H          2.70949       -1.40220        2.47237
H          4.52557       -0.10704        1.50161
H          3.32860        0.73731        0.55355
H          2.49320        2.71588        3.53847
H          0.91219        4.13142        2.45759
H          0.31288        5.60905        0.61924
H          1.63769        5.71114       -1.50213

--Link1--
%chk=JID_10500.chk
%mem=8GB
%nprocshared=4
# B3LYP/6-311++G(d,p) empiricaldispersion=gd3bj scf=xqc pop=npa geom=check

CID_65264000_JID_10500_Energie_neutraal

0 1

--Link1--
%chk=JID_10500.chk
%mem=8GB
%nprocshared=4
# B3LYP/6-311++G(d,p) empiricaldispersion=gd3bj scf=xqc pop=npa geom=check

CID_65264000_JID_10500_Energie_kation

1 2

--Link1--
%chk=JID_10500.chk
%mem=8GB
%nprocshared=4
# B3LYP/6-311++G(d,p) empiricaldispersion=gd3bj scf=xqc pop=npa geom=check

CID_65264000_JID_10500_Energie_anion

-1 2
