%chk=JID_3827.chk
%mem=8GB
%nprocshared=4
# opt freq B3LYP/6-31G(d) empiricaldispersion=gd3bj scf=xqc

CID_141977001_JID_3827_neutraal

0 1
C          1.09215        0.03617        0.01418
C          1.82344        1.22883       -0.55855
C         -1.81271       -2.47018       -1.19348
O         -1.49721       -3.33628       -2.27504
C         -0.31830       -2.94490       -2.97516
C         -0.68491       -1.89192       -3.96013
C         -1.55309       -1.92653       -5.03433
C         -1.53177       -0.65234       -5.64848
C         -0.65153        0.13711       -4.93687
N         -0.14081       -0.63173       -3.91758
C         -0.23375        1.55139       -5.12711
O         -0.13247        2.16066       -3.83931
C         -1.37713        2.68772       -3.39272
H          1.16821       -0.82006       -0.66171
H          0.03279        0.26767        0.15955
H          1.51898       -0.24945        0.98013
H          2.88044        0.99323       -0.71400
H          1.39119        1.51918       -1.52004
H          1.75686        2.08360        0.12098
H         -2.72340       -2.83982       -0.71432
H         -1.99710       -1.45010       -1.54284
H         -1.00703       -2.47512       -0.45315
H          0.46586       -2.62630       -2.27956
H          0.05350       -3.82449       -3.51153
H         -2.14358       -2.78366       -5.33317
H         -2.10192       -0.34539       -6.51587
H          0.51523       -0.28661       -3.22752
H          0.76148        1.57496       -5.58347
H         -0.91787        2.10582       -5.77924
H         -1.72265        3.47548       -4.06918
H         -2.13249        1.90024       -3.31319
H         -1.22652        3.12392       -2.40149

--Link1--
%chk=JID_3827.chk
%mem=8GB
%nprocshared=4
# B3LYP/6-311++G(d,p) empiricaldispersion=gd3bj scf=xqc pop=npa geom=check

CID_141977001_JID_3827_Energie_neutraal

0 1

--Link1--
%chk=JID_3827.chk
%mem=8GB
%nprocshared=4
# B3LYP/6-311++G(d,p) empiricaldispersion=gd3bj scf=xqc pop=npa geom=check

CID_141977001_JID_3827_Energie_kation

1 2

--Link1--
%chk=JID_3827.chk
%mem=8GB
%nprocshared=4
# B3LYP/6-311++G(d,p) empiricaldispersion=gd3bj scf=xqc pop=npa geom=check

CID_141977001_JID_3827_Energie_anion

-1 2
