%chk=JID_7429.chk
%mem=8GB
%nprocshared=4
# opt freq B3LYP/6-31G(d) empiricaldispersion=gd3bj scf=xqc

CID_80001671_JID_7429_neutraal

0 1
C          0.91231        0.04393        0.01950
C          0.61081       -0.24657       -1.44311
C         -0.03097       -1.61994       -1.67029
C         -1.46791       -1.75921       -1.13613
C         -2.44082       -0.92693       -2.01317
O         -2.77655       -1.32800       -3.13460
N         -2.87859        0.30981       -1.62515
C         -2.80347        0.93554       -0.37164
C         -2.44297        2.28443       -0.33859
C         -2.32213        2.95766        0.88415
C         -2.57020        2.26339        2.07670
C         -2.99025        0.92607        2.05944
C         -3.14283        0.28976        0.82413
O         -3.73402       -0.94724        0.80640
C         -3.33464        0.22422        3.34075
C         -1.86119        4.38551        0.92103
N         -1.86013       -3.18555       -1.23599
H          0.00328        0.08926        0.62327
H          1.42147        1.00857        0.11283
H          1.56648       -0.72465        0.44334
H         -0.01620        0.54837       -1.85915
H          1.55681       -0.21512       -1.99758
H         -0.02043       -1.82116       -2.75012
H          0.61089       -2.38182       -1.20797
H         -1.49549       -1.48303       -0.08554
H         -3.13992        0.88489       -2.41857
H         -2.21007        2.81066       -1.26162
H         -2.45673        2.77798        3.02978
H         -4.16865       -1.03216       -0.06084
H         -2.88829       -0.77543        3.36391
H         -2.94996        0.76956        4.20907
H         -4.42093        0.13840        3.44287
H         -2.26979        4.90618        1.79344
H         -0.76845        4.42435        0.96506
H         -2.19996        4.92760        0.03188
H         -2.78847       -3.30039       -0.83151
H         -1.97102       -3.40394       -2.23092

--Link1--
%chk=JID_7429.chk
%mem=8GB
%nprocshared=4
# B3LYP/6-311++G(d,p) empiricaldispersion=gd3bj scf=xqc pop=npa geom=check

CID_80001671_JID_7429_Energie_neutraal

0 1

--Link1--
%chk=JID_7429.chk
%mem=8GB
%nprocshared=4
# B3LYP/6-311++G(d,p) empiricaldispersion=gd3bj scf=xqc pop=npa geom=check

CID_80001671_JID_7429_Energie_kation

1 2

--Link1--
%chk=JID_7429.chk
%mem=8GB
%nprocshared=4
# B3LYP/6-311++G(d,p) empiricaldispersion=gd3bj scf=xqc pop=npa geom=check

CID_80001671_JID_7429_Energie_anion

-1 2
