%chk=JID_5409.chk
%mem=8GB
%nprocshared=4
# opt freq B3LYP/6-31G(d) empiricaldispersion=gd3bj scf=xqc

CID_87439080_JID_5409_neutraal

0 1
C          0.33400        1.00600       -0.17300
C          1.08045       -0.23988        0.38561
S         -0.36012       -1.26971       -0.08337
C         -1.05453        0.39967        0.14484
C          2.29031       -0.63199       -0.36897
C          3.39458       -1.05574        0.26689
C          4.64838       -1.45906       -0.44646
S          6.07548       -0.49957        0.14980
C          5.59967        1.18178       -0.35062
C          5.48718        1.29362       -1.83992
C          4.38068        1.72522       -2.46702
C          4.31709        1.77777       -3.94434
S          3.00137        0.66623       -4.57613
C          2.92920        2.12234       -5.67045
C          3.53455        2.98527       -4.53594
H          0.48750        1.20178       -1.24413
H          0.54877        1.94081        0.35695
H          1.22534       -0.19609        1.47250
H         -1.40382        0.59078        1.16515
H         -1.84550        0.68286       -0.55492
H          2.26910       -0.56694       -1.45504
H          3.40448       -1.14263        1.35165
H          4.84871       -2.51398       -0.23129
H          4.56374       -1.36798       -1.53379
H          4.68044        1.47859        0.16409
H          6.38752        1.86122       -0.00860
H          6.36311        0.99812       -2.41482
H          3.50256        2.02106       -1.89840
H          5.28064        1.60935       -4.44159
H          1.92807        2.42591       -5.98832
H          3.56738        2.03430       -6.55617
H          2.77600        3.42215       -3.87053
H          4.16600        3.80942       -4.88634

--Link1--
%chk=JID_5409.chk
%mem=8GB
%nprocshared=4
# B3LYP/6-311++G(d,p) empiricaldispersion=gd3bj scf=xqc pop=npa geom=check

CID_87439080_JID_5409_Energie_neutraal

0 1

--Link1--
%chk=JID_5409.chk
%mem=8GB
%nprocshared=4
# B3LYP/6-311++G(d,p) empiricaldispersion=gd3bj scf=xqc pop=npa geom=check

CID_87439080_JID_5409_Energie_kation

1 2

--Link1--
%chk=JID_5409.chk
%mem=8GB
%nprocshared=4
# B3LYP/6-311++G(d,p) empiricaldispersion=gd3bj scf=xqc pop=npa geom=check

CID_87439080_JID_5409_Energie_anion

-1 2
