%chk=JID_7685.chk
%mem=8GB
%nprocshared=4
# opt freq B3LYP/6-31G(d) empiricaldispersion=gd3bj scf=xqc

CID_90282660_JID_7685_neutraal

0 1
C          1.34400       -0.22500        0.03600
C          0.96550        0.81333       -0.81258
C         -0.38303        1.14587       -0.95443
C         -1.36720        0.44494       -0.24450
C         -0.97480       -0.59919        0.60452
C          0.37391       -0.93163        0.74365
C         -2.82478        0.80652       -0.39293
C         -3.43278        1.45496        0.85950
C         -2.83552        2.82551        1.23379
C         -2.99287        3.91402        0.15056
C         -4.36278        4.06254       -0.53376
C         -5.53084        4.49263        0.36072
O         -5.24105        5.74985        0.97094
O         -4.20300        5.06487       -1.55065
C         -3.35190        3.30740        2.57785
O         -3.81469        4.40997        2.82722
O         -3.20856        2.39960        3.56012
H          2.39371       -0.48453        0.14377
H          1.72079        1.36402       -1.36733
H         -0.65803        1.95673       -1.62552
H         -1.71902       -1.16406        1.16144
H          0.66715       -1.74409        1.40329
H         -2.96557        1.45173       -1.26724
H         -3.37975       -0.11342       -0.61931
H         -4.51584        1.55324        0.71627
H         -3.31939        0.76081        1.70191
H         -1.75477        2.70774        1.39465
H         -2.68209        4.88830        0.55215
H         -2.25705        3.71326       -0.64029
H         -4.63049        3.13770       -1.05256
H         -6.42665        4.64277       -0.25086
H         -5.76809        3.75279        1.13014
H         -4.71662        5.55278        1.77812
H         -4.33703        5.92216       -1.09660
H         -3.52276        2.85137        4.37141

--Link1--
%chk=JID_7685.chk
%mem=8GB
%nprocshared=4
# B3LYP/6-311++G(d,p) empiricaldispersion=gd3bj scf=xqc pop=npa geom=check

CID_90282660_JID_7685_Energie_neutraal

0 1

--Link1--
%chk=JID_7685.chk
%mem=8GB
%nprocshared=4
# B3LYP/6-311++G(d,p) empiricaldispersion=gd3bj scf=xqc pop=npa geom=check

CID_90282660_JID_7685_Energie_kation

1 2

--Link1--
%chk=JID_7685.chk
%mem=8GB
%nprocshared=4
# B3LYP/6-311++G(d,p) empiricaldispersion=gd3bj scf=xqc pop=npa geom=check

CID_90282660_JID_7685_Energie_anion

-1 2
