%chk=JID_5153.chk
%mem=8GB
%nprocshared=4
# opt=(cartesian,calcfc) freq B3LYP/6-31G(d) empiricaldispersion=gd3bj scf=xqc

CID_96255_JID_5153_neutraal

0 1
6	-0.425630	 2.809332	 -0.022413
7	-0.658683	 1.368986	 -0.034561
6	0.374274	 0.466820	 -0.035447
6	0.138662	 -0.888700	 -0.026201
6	-1.155722	 -1.480276	 -0.005876
8	-1.411047	 -2.681747	 0.001578
7	-2.167628	 -0.479099	 0.007674
6	-1.976891	 0.909596	 0.005062
8	-2.919076	 1.688821	 0.032849
6	-3.563114	 -0.919117	 0.042256
7	1.410098	 -1.470413	 -0.022386
6	2.300495	 -0.438478	 -0.038954
7	1.710315	 0.759081	 -0.039104
7	3.664027	 -0.618687	 -0.079090
7	4.489987	 0.512852	 0.140821
1	-0.586290	 3.218908	 0.982041
1	0.602043	 2.980765	 -0.332599
1	-1.125120	 3.293691	 -0.710013
1	-3.558697	 -2.002293	 0.107469
1	-4.070394	 -0.475773	 0.904677
1	-4.079727	 -0.594859	 -0.866035
1	1.594541	 -2.459654	 -0.094231
1	4.013842	 -1.431959	 0.413395
1	4.575606	 0.990089	 -0.755486
1	3.985922	 1.160392	 0.751336

--Link1--
%chk=JID_5153.chk
%mem=8GB
%nprocshared=4
# B3LYP/6-311++G(d,p) empiricaldispersion=gd3bj scf=xqc pop=npa geom=check

CID_96255_JID_5153_Energie_neutraal

0 1

--Link1--
%chk=JID_5153.chk
%mem=8GB
%nprocshared=4
# B3LYP/6-311++G(d,p) empiricaldispersion=gd3bj scf=xqc pop=npa geom=check

CID_96255_JID_5153_Energie_kation

1 2

--Link1--
%chk=JID_5153.chk
%mem=8GB
%nprocshared=4
# B3LYP/6-311++G(d,p) empiricaldispersion=gd3bj scf=xqc pop=npa geom=check

CID_96255_JID_5153_Energie_anion

-1 2
