%chk=JID_9344.chk
%mem=8GB
%nprocshared=4
# opt freq B3LYP/6-31G(d) empiricaldispersion=gd3bj scf=xqc

CID_115438277_JID_9344_neutraal

0 1
C          0.78100       -1.26600       -0.21900
C         -0.46104       -1.06824       -1.07083
O         -0.48375        0.23064       -1.64610
C         -0.63588        1.23594       -0.65457
C          0.57684        1.29967        0.25943
C          1.22401       -0.04728        0.60050
C          1.29134       -0.33108        2.09968
O          2.38254       -0.35334        2.67616
N          0.19158       -0.59228        2.85049
C         -1.22053       -0.46257        2.54650
C         -2.09121       -1.60992        3.10207
C         -1.51718       -2.98950        2.71003
C         -2.49060       -4.11592        3.03334
O         -3.73858       -3.88990        2.38405
C         -4.37674       -2.69895        2.83584
C         -3.51572       -1.48366        2.51154
C         -2.07938       -1.47537        4.61982
O         -1.15412       -1.78873        5.35281
O         -3.17685       -0.90565        5.14562
H          1.60210       -1.49316       -0.91405
H          0.67250       -2.16355        0.40007
H         -0.46365       -1.79700       -1.88868
H         -1.38125       -1.24006       -0.50346
H         -1.56194        1.06748       -0.09541
H         -0.75774        2.19621       -1.16759
H          0.33707        1.88113        1.15724
H          1.33719        1.88987       -0.27201
H          2.28906        0.08533        0.34525
H          0.44314       -0.73573        3.82741
H         -1.53871        0.50192        2.96041
H         -1.33910       -0.40266        1.47054
H         -1.33036       -2.99778        1.62845
H         -0.56064       -3.18943        3.20663
H         -2.09139       -5.06574        2.66325
H         -2.64908       -4.22438        4.11229
H         -4.59402       -2.78264        3.90605
H         -5.33602       -2.61925        2.31422
H         -4.01674       -0.56902        2.84910
H         -3.43618       -1.41235        1.41809
H         -2.99854       -0.87708        6.11109

--Link1--
%chk=JID_9344.chk
%mem=8GB
%nprocshared=4
# B3LYP/6-311++G(d,p) empiricaldispersion=gd3bj scf=xqc pop=npa geom=check

CID_115438277_JID_9344_Energie_neutraal

0 1

--Link1--
%chk=JID_9344.chk
%mem=8GB
%nprocshared=4
# B3LYP/6-311++G(d,p) empiricaldispersion=gd3bj scf=xqc pop=npa geom=check

CID_115438277_JID_9344_Energie_kation

1 2

--Link1--
%chk=JID_9344.chk
%mem=8GB
%nprocshared=4
# B3LYP/6-311++G(d,p) empiricaldispersion=gd3bj scf=xqc pop=npa geom=check

CID_115438277_JID_9344_Energie_anion

-1 2
