%chk=JID_6470.chk
%mem=8GB
%nprocshared=4
# opt freq B3LYP/6-31G(d) empiricaldispersion=gd3bj scf=xqc

CID_129197313_JID_6470_neutraal

0 1
C          1.34400       -0.22500        0.03600
C          0.97096        1.08847       -0.24330
C         -0.36754        1.39679       -0.48913
C         -1.34438        0.39026       -0.46667
C         -0.95957       -0.92520       -0.17124
C          0.37979       -1.23094        0.07424
C         -2.79774        0.73255       -0.69888
N         -3.43647        1.04683        0.58545
C         -4.10608        2.28823        0.61945
C         -3.58609        3.30642        1.43534
C         -4.16627        4.57726        1.46383
C         -5.28138        4.85370        0.67828
C         -5.82027        3.85901       -0.13656
C         -5.23448        2.58489       -0.17209
C         -5.85853        1.52670       -0.99248
N         -6.50476        1.72645       -2.09748
H          2.38680       -0.46492        0.22709
H          1.72299        1.87290       -0.26823
H         -0.64766        2.42728       -0.69807
H         -1.70429       -1.71756       -0.12861
H          0.67083       -2.25420        0.29775
H         -2.85998        1.55586       -1.42297
H         -3.30865       -0.12418       -1.15407
H         -2.76722        0.96496        1.34962
H         -2.71048        3.12024        2.05323
H         -3.74657        5.34974        2.10379
H         -5.73997        5.83904        0.71114
H         -6.71664        4.07878       -0.70981
H         -5.75149        0.48746       -0.63749
H         -6.51066        2.71534       -2.35982

--Link1--
%chk=JID_6470.chk
%mem=8GB
%nprocshared=4
# B3LYP/6-311++G(d,p) empiricaldispersion=gd3bj scf=xqc pop=npa geom=check

CID_129197313_JID_6470_Energie_neutraal

0 1

--Link1--
%chk=JID_6470.chk
%mem=8GB
%nprocshared=4
# B3LYP/6-311++G(d,p) empiricaldispersion=gd3bj scf=xqc pop=npa geom=check

CID_129197313_JID_6470_Energie_kation

1 2

--Link1--
%chk=JID_6470.chk
%mem=8GB
%nprocshared=4
# B3LYP/6-311++G(d,p) empiricaldispersion=gd3bj scf=xqc pop=npa geom=check

CID_129197313_JID_6470_Energie_anion

-1 2
