%chk=JID_9242.chk
%mem=8GB
%nprocshared=4
# opt freq B3LYP/6-31G(d) empiricaldispersion=gd3bj scf=xqc

CID_106894608_JID_9242_neutraal

0 1
C          1.00356        0.09811        0.01900
O          1.06493        1.29876        0.79372
C          1.36726        1.00322        2.09774
C          2.70531        0.84230        2.45395
C          3.03672        0.57928        3.78064
C          2.03439        0.50522        4.75336
C          0.68922        0.73586        4.43102
C          0.36564        0.95711        3.07769
C         -1.03611        1.16198        2.66557
O         -1.66740        0.25681        2.13058
N         -1.62927        2.37733        2.91824
C         -0.92027        3.61609        3.20127
C         -1.84314        4.70051        3.68885
N         -1.95266        5.81642        2.93287
N         -2.77264        6.83430        3.32908
C         -3.47111        6.71522        4.47429
C         -3.39194        5.59512        5.27618
C         -2.55607        4.56182        4.87413
N         -0.27983        0.52819        5.42439
H          0.59841        0.35539       -0.96414
H          0.34397       -0.64902        0.47373
H          2.00564       -0.31961       -0.12542
H          3.48507        0.91304        1.70065
H          4.07558        0.42040        4.05982
H          2.31551        0.26095        5.77545
H         -2.52751        2.46098        2.45513
H         -0.14227        3.44392        3.95130
H         -0.42263        3.92479        2.27488
H         -4.10251        7.55936        4.72596
H         -3.96842        5.52703        6.19156
H         -2.46725        3.66169        5.47334
H         -1.20345        0.89740        5.21562
H          0.02550        0.70164        6.37576

--Link1--
%chk=JID_9242.chk
%mem=8GB
%nprocshared=4
# B3LYP/6-311++G(d,p) empiricaldispersion=gd3bj scf=xqc pop=npa geom=check

CID_106894608_JID_9242_Energie_neutraal

0 1

--Link1--
%chk=JID_9242.chk
%mem=8GB
%nprocshared=4
# B3LYP/6-311++G(d,p) empiricaldispersion=gd3bj scf=xqc pop=npa geom=check

CID_106894608_JID_9242_Energie_kation

1 2

--Link1--
%chk=JID_9242.chk
%mem=8GB
%nprocshared=4
# B3LYP/6-311++G(d,p) empiricaldispersion=gd3bj scf=xqc pop=npa geom=check

CID_106894608_JID_9242_Energie_anion

-1 2
