%chk=JID_9056.chk
%mem=8GB
%nprocshared=4
# opt freq B3LYP/6-31G(d) empiricaldispersion=gd3bj scf=xqc

CID_50947264_JID_9056_neutraal

0 1
C          2.49200        0.00400       -0.01400
C          1.00496       -0.03428        0.20032
C          0.31133       -1.20214        0.56550
C         -1.07130       -1.15174        0.77889
C         -1.76704        0.05323        0.66215
C         -1.09241        1.22601        0.30909
C          0.28249        1.16841        0.05977
C         -1.90248        2.45158        0.09010
O         -3.04159        2.33598       -0.36148
N         -1.43365        3.70992        0.36466
C         -0.27136        4.16444        1.12237
C          0.67212        4.93442        0.20118
C         -0.72439        5.05413        2.27836
N          0.90344       -2.51119        0.57367
C          0.99863       -3.19063       -0.73317
S          2.11158       -2.83722        1.71645
O          3.36834       -3.00687        1.01773
O          1.98824       -1.92132        2.83245
C          1.59028       -4.43435        2.30345
H          3.01604       -0.04937        0.94445
H          2.82210       -0.81028       -0.66341
H          2.79899        0.93424       -0.50509
H         -1.61751       -2.05776        1.02843
H         -2.84374        0.06914        0.82066
H          0.80494        2.05543       -0.28317
H         -2.11872        4.41637        0.12009
H          0.25024        3.30693        1.55321
H          0.18325        5.82411       -0.21224
H          1.56855        5.25762        0.73994
H          0.98980        4.31909       -0.64676
H         -1.39397        4.50618        2.94985
H          0.13410        5.40176        2.86257
H         -1.26812        5.93373        1.91542
H          1.72992       -2.70334       -1.38346
H          1.27946       -4.24010       -0.61111
H          0.02526       -3.18066       -1.23552
H          0.57912       -4.35216        2.70600
H          1.63053       -5.15550        1.48599
H          2.27917       -4.74163        3.09358

--Link1--
%chk=JID_9056.chk
%mem=8GB
%nprocshared=4
# B3LYP/6-311++G(d,p) empiricaldispersion=gd3bj scf=xqc pop=npa geom=check

CID_50947264_JID_9056_Energie_neutraal

0 1

--Link1--
%chk=JID_9056.chk
%mem=8GB
%nprocshared=4
# B3LYP/6-311++G(d,p) empiricaldispersion=gd3bj scf=xqc pop=npa geom=check

CID_50947264_JID_9056_Energie_kation

1 2

--Link1--
%chk=JID_9056.chk
%mem=8GB
%nprocshared=4
# B3LYP/6-311++G(d,p) empiricaldispersion=gd3bj scf=xqc pop=npa geom=check

CID_50947264_JID_9056_Energie_anion

-1 2
