%chk=JID_7138.chk
%mem=8GB
%nprocshared=4
# opt freq B3LYP/6-31G(d) empiricaldispersion=gd3bj scf=xqc

CID_62262694_JID_7138_neutraal

0 1
C          1.01481        0.00117        0.09889
C          0.31097        1.00332       -0.81206
C          0.55474        0.84306       -2.34565
C          0.27148       -0.63553       -2.80119
C         -1.11105       -1.20288       -2.49338
C         -0.43578        1.77261       -3.11751
N         -0.41031        3.18838       -2.76069
C          2.05709        1.10507       -2.73894
N          2.55004        2.49318       -2.55413
C          3.30128        2.72431       -1.30131
C          4.76215        2.30019       -1.40693
C          2.82897        3.31025       -3.66730
C          3.49372        4.54697       -3.54161
C          3.75363        5.38522       -4.63627
C          3.33608        5.02207       -5.90685
C          2.65056        3.82865       -6.07275
C          2.39783        2.99810       -4.97000
H          0.64844       -1.01701       -0.05696
H          0.81983        0.25731        1.14585
H          2.09794        0.00052       -0.04215
H         -0.76537        0.93798       -0.60651
H          0.60292        2.00997       -0.49273
H          0.42287       -0.70894       -3.88681
H          1.01816       -1.30464       -2.35470
H         -1.89748       -0.68036       -3.04408
H         -1.15093       -2.25426       -2.79849
H         -1.34648       -1.16363       -1.42712
H         -0.26128        1.68297       -4.19519
H         -1.46633        1.44240       -2.95320
H          0.56881        3.49537       -2.78769
H         -0.68642        3.30701       -1.78874
H          2.68803        0.43185       -2.14426
H          2.23892        0.74953       -3.75849
H          3.21522        3.76482       -0.97042
H          2.84940        2.14905       -0.48846
H          5.30712        2.87803       -2.15861
H          5.26409        2.44738       -0.44522
H          4.85176        1.24239       -1.67371
H          3.83229        4.91060       -2.57735
H          4.27542        6.32604       -4.48284
H          3.52794        5.66997       -6.75675
H          2.29368        3.53852       -7.05739
H          1.82444        2.10235       -5.17909

--Link1--
%chk=JID_7138.chk
%mem=8GB
%nprocshared=4
# B3LYP/6-311++G(d,p) empiricaldispersion=gd3bj scf=xqc pop=npa geom=check

CID_62262694_JID_7138_Energie_neutraal

0 1

--Link1--
%chk=JID_7138.chk
%mem=8GB
%nprocshared=4
# B3LYP/6-311++G(d,p) empiricaldispersion=gd3bj scf=xqc pop=npa geom=check

CID_62262694_JID_7138_Energie_kation

1 2

--Link1--
%chk=JID_7138.chk
%mem=8GB
%nprocshared=4
# B3LYP/6-311++G(d,p) empiricaldispersion=gd3bj scf=xqc pop=npa geom=check

CID_62262694_JID_7138_Energie_anion

-1 2
