%chk=JID_9934.chk
%mem=8GB
%nprocshared=4
# opt freq B3LYP/6-31G(d) empiricaldispersion=gd3bj scf=xqc

CID_62456677_JID_9934_neutraal

0 1
C          1.06757       -0.02962        0.06751
O          0.43841       -0.09145        1.34078
C          0.70453       -1.19491        2.10361
C          0.17866       -1.15314        3.39649
C          0.39439       -2.20650        4.28748
C          1.14465       -3.32148        3.89576
C          1.64326       -3.37361        2.58814
C          1.42918       -2.31541        1.69864
C          1.40526       -4.45031        4.86124
O          1.95664       -4.00702        6.10422
C          3.24763       -3.39389        6.03168
C          4.39085       -4.36052        5.72668
N          4.75579       -4.38514        4.32572
C          5.38140       -3.41095        3.60558
C          5.51429       -3.95975        2.34573
N          4.97267       -5.22133        2.35444
N          4.52901       -5.47696        3.57749
C          6.08146       -3.37888        1.10180
N          7.49672       -3.06952        1.29134
H          0.80805        0.93141       -0.38700
H          0.69717       -0.82019       -0.59331
H          2.15809       -0.06967        0.16068
H         -0.39897       -0.28905        3.71531
H         -0.01451       -2.15017        5.29423
H          2.21230       -4.23929        2.25131
H          1.83904       -2.40326        0.69833
H          0.44666       -4.93149        5.08798
H          2.03873       -5.22898        4.42953
H          3.23014       -2.52707        5.36230
H          3.41856       -2.99374        7.03790
H          5.29627       -4.04284        6.25711
H          4.14928       -5.38198        6.03939
H          5.66123       -2.45563        4.02154
H          5.97449       -4.08594        0.27246
H          5.53546       -2.46770        0.83417
H          7.86582       -2.66986        0.43147
H          7.59332       -2.35616        2.00996

--Link1--
%chk=JID_9934.chk
%mem=8GB
%nprocshared=4
# B3LYP/6-311++G(d,p) empiricaldispersion=gd3bj scf=xqc pop=npa geom=check

CID_62456677_JID_9934_Energie_neutraal

0 1

--Link1--
%chk=JID_9934.chk
%mem=8GB
%nprocshared=4
# B3LYP/6-311++G(d,p) empiricaldispersion=gd3bj scf=xqc pop=npa geom=check

CID_62456677_JID_9934_Energie_kation

1 2

--Link1--
%chk=JID_9934.chk
%mem=8GB
%nprocshared=4
# B3LYP/6-311++G(d,p) empiricaldispersion=gd3bj scf=xqc pop=npa geom=check

CID_62456677_JID_9934_Energie_anion

-1 2
