%chk=JID_4911.chk
%mem=8GB
%nprocshared=4
# opt freq B3LYP/6-31G(d) empiricaldispersion=gd3bj scf=xqc

CID_61633936_JID_4911_neutraal

0 1
C          1.00753       -0.09969       -0.00238
C          0.63369       -1.56563       -0.16385
C          1.03076       -2.40027        1.01427
N          1.64111       -1.95376        2.09583
C          1.82510       -3.03610        2.90555
C          1.32958       -4.16932        2.31391
N          0.80717       -3.76450        1.11297
C          0.19064       -4.62513        0.09560
C          1.24227       -5.57120       -0.55746
N          1.67810       -6.73111        0.21759
C         -1.20817       -5.24354        0.48929
C         -2.19680       -4.10277        0.82979
C         -1.79360       -6.01212       -0.71720
C         -1.18432       -6.20794        1.68840
H          0.51705        0.34083        0.87238
H          0.69902        0.46892       -0.88546
H          2.08927        0.02305        0.11847
H         -0.44956       -1.63669       -0.31203
H          1.12237       -1.95414       -1.06479
H          2.30820       -2.94439        3.86934
H          1.30423       -5.19388        2.65328
H         -0.04948       -3.93648       -0.72622
H          0.83887       -5.94158       -1.50676
H          2.13344       -4.98747       -0.82208
H          2.30943       -7.29683       -0.35092
H          2.24278       -6.41593        1.00738
H         -2.29156       -3.39821       -0.00383
H         -3.19802       -4.49632        1.04113
H         -1.87713       -3.54064        1.71365
H         -1.20948       -6.90941       -0.94659
H         -2.82070       -6.34018       -0.51847
H         -1.81807       -5.38292       -1.61395
H         -0.49712       -7.04333        1.53888
H         -0.91817       -5.70017        2.61923
H         -2.17744       -6.64504        1.85180

--Link1--
%chk=JID_4911.chk
%mem=8GB
%nprocshared=4
# B3LYP/6-311++G(d,p) empiricaldispersion=gd3bj scf=xqc pop=npa geom=check

CID_61633936_JID_4911_Energie_neutraal

0 1

--Link1--
%chk=JID_4911.chk
%mem=8GB
%nprocshared=4
# B3LYP/6-311++G(d,p) empiricaldispersion=gd3bj scf=xqc pop=npa geom=check

CID_61633936_JID_4911_Energie_kation

1 2

--Link1--
%chk=JID_4911.chk
%mem=8GB
%nprocshared=4
# B3LYP/6-311++G(d,p) empiricaldispersion=gd3bj scf=xqc pop=npa geom=check

CID_61633936_JID_4911_Energie_anion

-1 2
