%chk=JID_7822.chk
%mem=8GB
%nprocshared=4
# opt freq B3LYP/6-31G(d) empiricaldispersion=gd3bj scf=xqc

CID_102711189_JID_7822_neutraal

0 1
C          0.95022        0.05416       -0.06774
O         -0.29320        0.74388       -0.05180
C         -0.14377        2.15014       -0.27535
C         -0.51916        2.93660        0.98557
N          0.49867        2.86729        2.01535
C          1.61807        3.70336        2.04662
O          1.86836        4.62013        1.27923
C          2.49907        3.24691        3.21233
C          1.75949        2.04920        3.72613
C          0.58503        1.87216        2.99443
C         -0.27389        0.81936        3.24820
C          0.07285       -0.08124        4.26166
C          1.26289        0.08693        5.00142
C          2.11500        1.16978        4.73545
C          1.66510       -0.87138        6.06008
O          2.66683       -0.79356        6.74620
O          0.79959       -1.89082        6.19821
H          1.38441        0.09041       -1.07156
H          0.76664       -0.99123        0.19410
H          1.65140        0.47897        0.65535
H          0.86352        2.40461       -0.62718
H         -0.84802        2.41250       -1.07210
H         -0.63585        3.99171        0.71155
H         -1.47412        2.59262        1.39620
H          3.48701        2.97033        2.83554
H          2.55298        4.03687        3.96531
H         -1.17907        0.66584        2.67041
H         -0.58610       -0.92350        4.46263
H          3.03698        1.30495        5.29463
H          1.19199       -2.43953        6.90943

--Link1--
%chk=JID_7822.chk
%mem=8GB
%nprocshared=4
# B3LYP/6-311++G(d,p) empiricaldispersion=gd3bj scf=xqc pop=npa geom=check

CID_102711189_JID_7822_Energie_neutraal

0 1

--Link1--
%chk=JID_7822.chk
%mem=8GB
%nprocshared=4
# B3LYP/6-311++G(d,p) empiricaldispersion=gd3bj scf=xqc pop=npa geom=check

CID_102711189_JID_7822_Energie_kation

1 2

--Link1--
%chk=JID_7822.chk
%mem=8GB
%nprocshared=4
# B3LYP/6-311++G(d,p) empiricaldispersion=gd3bj scf=xqc pop=npa geom=check

CID_102711189_JID_7822_Energie_anion

-1 2
