%chk=JID_1718.chk
%mem=8GB
%nprocshared=4
# opt freq B3LYP/6-31G(d) empiricaldispersion=gd3bj scf=xqc

CID_54798986_JID_1718_neutraal

0 1
C          1.05049        0.06745        0.05387
C          0.54172        0.46478       -1.34330
C          1.12411       -0.51876       -2.37662
C         -0.99300        0.35326       -1.37500
C          1.01219        1.89811       -1.71603
N          0.53591        2.92304       -0.78410
C          1.08886        4.24225       -1.06966
C          0.60047        4.88520       -2.36765
C          0.91157        6.36857       -2.18548
C          0.95884        6.60953       -0.67565
C          0.63922        5.26621       -0.02745
H          0.78082       -0.96803        0.29135
H          0.62315        0.70351        0.83656
H          2.14160        0.14856        0.11408
H          0.82492       -1.54987       -2.15679
H          0.77736       -0.28045       -3.38849
H          2.21943       -0.48503       -2.38194
H         -1.46249        0.96625       -0.59848
H         -1.39153        0.67339       -2.34414
H         -1.31556       -0.68106       -1.20859
H          2.10977        1.91176       -1.73601
H          0.66719        2.13193       -2.73095
H         -0.48203        2.96387       -0.80841
H          2.18642        4.19827       -1.06317
H          1.09141        4.47441       -3.25535
H         -0.48186        4.75005       -2.48947
H          0.15828        6.99470       -2.67427
H          1.88239        6.61394       -2.63122
H          0.25084        7.38349       -0.36285
H          1.96161        6.94360       -0.38504
H         -0.44098        5.19698        0.15567
H          1.15032        5.14144        0.93259

--Link1--
%chk=JID_1718.chk
%mem=8GB
%nprocshared=4
# B3LYP/6-311++G(d,p) empiricaldispersion=gd3bj scf=xqc pop=npa geom=check

CID_54798986_JID_1718_Energie_neutraal

0 1

--Link1--
%chk=JID_1718.chk
%mem=8GB
%nprocshared=4
# B3LYP/6-311++G(d,p) empiricaldispersion=gd3bj scf=xqc pop=npa geom=check

CID_54798986_JID_1718_Energie_kation

1 2

--Link1--
%chk=JID_1718.chk
%mem=8GB
%nprocshared=4
# B3LYP/6-311++G(d,p) empiricaldispersion=gd3bj scf=xqc pop=npa geom=check

CID_54798986_JID_1718_Energie_anion

-1 2
