%chk=JID_6631.chk
%mem=8GB
%nprocshared=4
# opt freq B3LYP/6-31G(d) empiricaldispersion=gd3bj scf=xqc

CID_62602307_JID_6631_neutraal

0 1
C          1.01615        0.00932       -0.09825
N          0.41545        1.32487       -0.15864
C         -0.99135        1.37997        0.27868
C         -1.27356        0.94826        1.74145
C         -0.67521        1.64551        2.99505
C          0.67213        1.07679        3.48278
C          1.91376        1.86370        3.08215
C          1.75390        3.35240        3.34798
C          0.52850        3.90098        2.63370
C         -0.74558        3.17712        3.05541
C         -1.70167        2.69821       -0.07978
N         -3.05395        2.69246       -0.07548
C         -3.66546        3.84864       -0.39368
C         -2.99245        5.00236       -0.71298
C         -1.62266        4.91267       -0.68891
N         -0.95663        3.78702       -0.37449
H          0.44780       -0.71392       -0.69191
H          1.10684       -0.36674        0.92269
H          2.02463        0.05282       -0.52158
H          0.95367        2.03039        0.33517
H         -1.51642        0.64534       -0.35045
H         -2.36607        0.99207        1.87118
H         -1.04891       -0.12437        1.82344
H         -1.37969        1.31736        3.77822
H          0.64330        1.06963        4.58204
H          0.78497        0.02654        3.19300
H          2.14680        1.69994        2.02758
H          2.77611        1.48624        3.64456
H          2.64894        3.88554        3.00804
H          1.66594        3.53020        4.42671
H          0.68181        3.81993        1.55620
H          0.42607        4.97000        2.85389
H         -1.60857        3.55739        2.50114
H         -0.93687        3.45549        4.10188
H         -4.75089        3.81620       -0.38451
H         -3.50568        5.91813       -0.96790
H         -0.99792        5.76786       -0.92838

--Link1--
%chk=JID_6631.chk
%mem=8GB
%nprocshared=4
# B3LYP/6-311++G(d,p) empiricaldispersion=gd3bj scf=xqc pop=npa geom=check

CID_62602307_JID_6631_Energie_neutraal

0 1

--Link1--
%chk=JID_6631.chk
%mem=8GB
%nprocshared=4
# B3LYP/6-311++G(d,p) empiricaldispersion=gd3bj scf=xqc pop=npa geom=check

CID_62602307_JID_6631_Energie_kation

1 2

--Link1--
%chk=JID_6631.chk
%mem=8GB
%nprocshared=4
# B3LYP/6-311++G(d,p) empiricaldispersion=gd3bj scf=xqc pop=npa geom=check

CID_62602307_JID_6631_Energie_anion

-1 2
