%chk=JID_8873.chk
%mem=8GB
%nprocshared=4
# opt freq B3LYP/6-31G(d) empiricaldispersion=gd3bj scf=xqc

CID_66259880_JID_8873_neutraal

0 1
C          1.01052       -0.00952       -0.09899
C          0.35735       -0.73204        1.06848
N          0.84658       -0.16963        2.32814
C          0.14835       -0.72704        3.49651
C          0.56431       -0.01506        4.78557
O          0.29085       -0.93216        5.85343
C          0.54834       -2.25000        5.34906
C          0.45282       -2.18454        3.83442
C         -0.51026       -3.20776        3.24425
O         -0.01888       -4.09999        2.53996
N         -1.88185       -3.14259        3.45040
C         -2.55933       -2.40926        4.52219
C         -3.87201       -1.79065        4.04217
C         -4.81364       -2.81183        3.36920
C         -4.02592       -3.57818        2.28582
C         -2.70892       -4.16100        2.79793
C         -5.39991       -3.78434        4.40940
C         -5.98309       -2.06051        2.70704
H          0.78023        1.06116       -0.08142
H          0.64453       -0.41717       -1.04684
H          2.09934       -0.12699       -0.08008
H         -0.72946       -0.61382        0.99186
H          0.59287       -1.79879        0.99982
H          1.85156       -0.33288        2.40152
H         -0.92442       -0.56226        3.35389
H          1.63734        0.21129        4.80596
H          0.01088        0.91473        4.94811
H         -0.13879       -2.95789        5.82112
H          1.56288       -2.52737        5.65808
H          1.44614       -2.44799        3.44129
H         -1.93751       -1.61814        4.93092
H         -2.73387       -3.11716        5.34029
H         -3.63034       -0.99584        3.32315
H         -4.37539       -1.30451        4.88691
H         -4.63957       -4.38263        1.86201
H         -3.79452       -2.89325        1.45841
H         -2.18094       -4.61170        1.95075
H         -2.88349       -4.96193        3.52522
H         -6.08104       -4.50016        3.93506
H         -4.62838       -4.36224        4.92597
H         -5.96929       -3.24292        5.17356
H         -5.62446       -1.35028        1.95337
H         -6.66767       -2.75570        2.20812
H         -6.55961       -1.49496        3.44772

--Link1--
%chk=JID_8873.chk
%mem=8GB
%nprocshared=4
# B3LYP/6-311++G(d,p) empiricaldispersion=gd3bj scf=xqc pop=npa geom=check

CID_66259880_JID_8873_Energie_neutraal

0 1

--Link1--
%chk=JID_8873.chk
%mem=8GB
%nprocshared=4
# B3LYP/6-311++G(d,p) empiricaldispersion=gd3bj scf=xqc pop=npa geom=check

CID_66259880_JID_8873_Energie_kation

1 2

--Link1--
%chk=JID_8873.chk
%mem=8GB
%nprocshared=4
# B3LYP/6-311++G(d,p) empiricaldispersion=gd3bj scf=xqc pop=npa geom=check

CID_66259880_JID_8873_Energie_anion

-1 2
