%chk=JID_1793.chk
%mem=8GB
%nprocshared=4
# opt freq B3LYP/6-31G(d) empiricaldispersion=gd3bj scf=xqc

CID_54183843_JID_1793_neutraal

0 1
C          1.08885       -0.03580       -0.02871
C          0.84258       -1.41365        0.56747
C          1.57144       -1.63183        1.89030
O          1.00497       -0.81738        2.92582
C          1.67615        0.31835        3.23800
O          2.68881        0.72634        2.69067
O          1.01616        0.92788        4.24845
C          1.59350        2.16471        4.65875
O          2.77604        1.98162        5.44028
C          2.56871        1.84220        6.76798
O          1.50002        1.88369        7.35404
H          0.67115        0.75363        0.60302
H          0.61045        0.03888       -1.01062
H          2.15931        0.15097       -0.15962
H         -0.23607       -1.54147        0.71517
H          1.17197       -2.17325       -0.15039
H          1.43224       -2.67206        2.20477
H          2.65173       -1.47848        1.78437
H          1.84795        2.78162        3.78779
H          0.83181        2.73170        5.20743
H          3.53922        1.68696        7.26468

--Link1--
%chk=JID_1793.chk
%mem=8GB
%nprocshared=4
# B3LYP/6-311++G(d,p) empiricaldispersion=gd3bj scf=xqc pop=npa geom=check

CID_54183843_JID_1793_Energie_neutraal

0 1

--Link1--
%chk=JID_1793.chk
%mem=8GB
%nprocshared=4
# B3LYP/6-311++G(d,p) empiricaldispersion=gd3bj scf=xqc pop=npa geom=check

CID_54183843_JID_1793_Energie_kation

1 2

--Link1--
%chk=JID_1793.chk
%mem=8GB
%nprocshared=4
# B3LYP/6-311++G(d,p) empiricaldispersion=gd3bj scf=xqc pop=npa geom=check

CID_54183843_JID_1793_Energie_anion

-1 2
