%chk=JID_8845.chk
%mem=8GB
%nprocshared=4
# opt freq B3LYP/6-31G(d) empiricaldispersion=gd3bj scf=xqc

CID_61433059_JID_8845_neutraal

0 1
C          1.00545        0.09728       -0.02251
C          0.47731        1.52452        0.04611
C          1.03869        2.43237       -1.05118
C          0.40222        2.40309       -2.46930
C         -0.80155        1.46494       -2.67827
C         -0.83098        0.85051       -4.07426
C          0.43559        0.02043       -4.32641
C          1.76075        0.75829       -3.88763
C          1.48030        2.24023       -3.56801
N          2.86082        0.48684       -4.85652
C          3.07745        1.56071       -5.84978
C          4.10602        1.16765       -6.91656
O          5.35193        0.81609       -6.31099
C          5.15882       -0.30411       -5.44001
C          4.15208       -0.00050       -4.28180
C          4.79707        1.01782       -3.31756
C          3.94911       -1.33763       -3.53279
N          0.44005       -0.44663       -5.72482
H          0.74973       -0.40152       -0.95954
H          0.58857       -0.49560        0.79791
H          2.09602        0.08397        0.07639
H         -0.61746        1.53778        0.05083
H          0.78490        1.93740        1.01566
H          0.93423        3.46435       -0.68654
H          2.12235        2.27111       -1.11351
H          0.01183        3.42130       -2.62161
H         -1.72759        2.02798       -2.50799
H         -0.82212        0.64036       -1.96525
H         -0.93620        1.64640       -4.82290
H         -1.71873        0.21319       -4.17249
H          0.37259       -0.89122       -3.71683
H          2.02345        0.30367       -2.92775
H          2.39810        2.75927       -3.26804
H          1.12490        2.75595       -4.46981
H          2.13998        1.80213       -6.36226
H          3.43145        2.47366       -5.35791
H          3.74576        0.33298       -7.53035
H          4.28861        2.01487       -7.58539
H          4.82410       -1.16067       -6.04045
H          6.14231       -0.56686       -5.03325
H          4.16250        1.21441       -2.44743
H          5.75168        0.63716       -2.93511
H          5.00767        1.97517       -3.80473
H          3.39456       -1.22105       -2.59674
H          3.41191       -2.06208       -4.15591
H          4.91452       -1.78641       -3.26902
H          1.39624       -0.77954       -5.89254
H          0.35403        0.36175       -6.33746

--Link1--
%chk=JID_8845.chk
%mem=8GB
%nprocshared=4
# B3LYP/6-311++G(d,p) empiricaldispersion=gd3bj scf=xqc pop=npa geom=check

CID_61433059_JID_8845_Energie_neutraal

0 1

--Link1--
%chk=JID_8845.chk
%mem=8GB
%nprocshared=4
# B3LYP/6-311++G(d,p) empiricaldispersion=gd3bj scf=xqc pop=npa geom=check

CID_61433059_JID_8845_Energie_kation

1 2

--Link1--
%chk=JID_8845.chk
%mem=8GB
%nprocshared=4
# B3LYP/6-311++G(d,p) empiricaldispersion=gd3bj scf=xqc pop=npa geom=check

CID_61433059_JID_8845_Energie_anion

-1 2
