%chk=JID_4827.chk
%mem=8GB
%nprocshared=4
# opt freq B3LYP/6-31G(d) empiricaldispersion=gd3bj scf=xqc

CID_14115556_JID_4827_neutraal

0 1
C          1.04758       -0.03755        0.07954
S          0.02261        0.75362        1.34384
C          0.59638       -0.09705        2.75773
C          0.18992       -1.36116        2.99445
N          0.58610       -2.23379        3.97963
C          0.78482       -1.84038        5.21357
C          0.54592       -0.39004        5.66798
C          1.49677        0.52250        4.95399
C          1.50726        0.63624        3.61718
N          1.21725       -2.77220        6.14571
C          1.42055       -4.17715        5.80191
C          1.67666       -4.85147        7.14453
C          2.39436       -3.76833        7.92873
C          1.67031       -2.49497        7.50037
H          0.84120        0.42398       -0.88984
H          0.82175       -1.10509        0.00903
H          2.10910        0.09390        0.30737
H         -0.49350       -1.82526        2.28493
H         -0.49496       -0.11331        5.46207
H          0.68027       -0.28008        6.74653
H          2.18916        1.10664        5.55146
H          2.20352        1.32237        3.14235
H          2.29275       -4.27826        5.14600
H          0.54673       -4.61454        5.30803
H          0.72540       -5.09866        7.63111
H          2.26309       -5.76929        7.04844
H          2.35731       -3.92776        9.00992
H          3.44722       -3.72230        7.62483
H          0.80781       -2.30499        8.14841
H          2.35151       -1.63924        7.54606

--Link1--
%chk=JID_4827.chk
%mem=8GB
%nprocshared=4
# B3LYP/6-311++G(d,p) empiricaldispersion=gd3bj scf=xqc pop=npa geom=check

CID_14115556_JID_4827_Energie_neutraal

0 1

--Link1--
%chk=JID_4827.chk
%mem=8GB
%nprocshared=4
# B3LYP/6-311++G(d,p) empiricaldispersion=gd3bj scf=xqc pop=npa geom=check

CID_14115556_JID_4827_Energie_kation

1 2

--Link1--
%chk=JID_4827.chk
%mem=8GB
%nprocshared=4
# B3LYP/6-311++G(d,p) empiricaldispersion=gd3bj scf=xqc pop=npa geom=check

CID_14115556_JID_4827_Energie_anion

-1 2
