%chk=JID_8638.chk
%mem=8GB
%nprocshared=4
# opt freq B3LYP/6-31G(d) empiricaldispersion=gd3bj scf=xqc

CID_64687729_JID_8638_neutraal

0 1
C          0.92952       -0.06734        0.02231
C          0.21484        0.08032        1.37121
C          0.68881        1.35168        2.12146
O         -0.03128        2.12497        2.73767
O          2.04885        1.44832        2.05171
C          2.75197        2.54676        2.68855
C          2.33392        3.89612        2.09384
C          2.57971        2.51061        4.21074
C          4.23228        2.30340        2.35658
N         -1.27005        0.02958        1.29425
C         -1.79136       -1.31467        1.00214
C         -3.30551       -1.37401        1.25573
N         -3.98370       -0.25974        0.63063
C         -5.30819       -0.13946        0.34121
C         -5.42182        1.10305       -0.23919
N         -4.19972        1.72543       -0.31269
C         -3.34403        0.88729        0.23879
C         -1.85772        1.03978        0.38255
H          0.83972        0.83856       -0.58651
H          0.54747       -0.91555       -0.55332
H          2.00057       -0.24606        0.17131
H          0.53472       -0.74576        2.02133
H          1.30574        4.15995        2.35896
H          2.98065        4.70557        2.44929
H          2.37878        3.86902        0.99925
H          2.79928        1.51127        4.60305
H          3.24104        3.23146        4.70354
H          1.55541        2.74795        4.51303
H          4.56099        1.32788        2.73372
H          4.39008        2.28403        1.27181
H          4.87842        3.07603        2.78635
H         -1.58074       -1.59665       -0.03725
H         -1.31413       -2.06287        1.64607
H         -3.72756       -2.30048        0.85292
H         -3.52543       -1.31610        2.32783
H         -6.03524       -0.90677        0.56434
H         -6.31752        1.58266       -0.61173
H         -1.65346        2.05072        0.74956
H         -1.43244        0.95662       -0.62430

--Link1--
%chk=JID_8638.chk
%mem=8GB
%nprocshared=4
# B3LYP/6-311++G(d,p) empiricaldispersion=gd3bj scf=xqc pop=npa geom=check

CID_64687729_JID_8638_Energie_neutraal

0 1

--Link1--
%chk=JID_8638.chk
%mem=8GB
%nprocshared=4
# B3LYP/6-311++G(d,p) empiricaldispersion=gd3bj scf=xqc pop=npa geom=check

CID_64687729_JID_8638_Energie_kation

1 2

--Link1--
%chk=JID_8638.chk
%mem=8GB
%nprocshared=4
# B3LYP/6-311++G(d,p) empiricaldispersion=gd3bj scf=xqc pop=npa geom=check

CID_64687729_JID_8638_Energie_anion

-1 2
