%chk=JID_6360.chk
%mem=8GB
%nprocshared=4
# opt freq B3LYP/6-31G(d) empiricaldispersion=gd3bj scf=xqc

CID_60925386_JID_6360_neutraal

0 1
C          0.97120        0.00783       -0.09544
N          0.55949        0.84197        1.02400
C         -0.85917        1.17328        1.06089
C          1.45618        1.01720        2.06973
O          2.59085        0.53121        2.04584
C          1.06520        1.88918        3.24586
C          1.45769        3.34044        2.98975
N          0.56283        4.02042        2.06513
C         -0.57019        4.73583        2.32306
O         -1.32658        4.96995        1.37497
C         -0.89294        5.26860        3.73351
C          0.09962        6.35942        4.15227
C         -0.18175        6.84928        5.56903
C         -0.28087        5.67288        6.53390
C         -1.29925        4.64500        6.04697
N         -0.97716        4.15543        4.70589
H          0.60114        0.44782       -1.02630
H          0.54084       -0.98959        0.03533
H          2.05871       -0.08113       -0.16313
H         -1.12239        1.86210        1.86026
H         -1.14011        1.62939        0.10679
H         -1.42555        0.24755        1.20120
H          0.01556        1.76674        3.51626
H          1.63272        1.51707        4.10898
H          1.49522        3.87685        3.93870
H          2.45774        3.39644        2.54532
H          0.64023        3.75880        1.08886
H         -1.89211        5.72158        3.66249
H          0.03699        7.20392        3.45487
H          1.13364        6.00276        4.09760
H          0.60805        7.53621        5.89239
H         -1.12284        7.41280        5.58102
H          0.70329        5.19849        6.63696
H         -0.56761        6.03481        7.52769
H         -1.30986        3.79503        6.73789
H         -2.30716        5.07770        6.05658
H         -1.71796        3.52243        4.40061

--Link1--
%chk=JID_6360.chk
%mem=8GB
%nprocshared=4
# B3LYP/6-311++G(d,p) empiricaldispersion=gd3bj scf=xqc pop=npa geom=check

CID_60925386_JID_6360_Energie_neutraal

0 1

--Link1--
%chk=JID_6360.chk
%mem=8GB
%nprocshared=4
# B3LYP/6-311++G(d,p) empiricaldispersion=gd3bj scf=xqc pop=npa geom=check

CID_60925386_JID_6360_Energie_kation

1 2

--Link1--
%chk=JID_6360.chk
%mem=8GB
%nprocshared=4
# B3LYP/6-311++G(d,p) empiricaldispersion=gd3bj scf=xqc pop=npa geom=check

CID_60925386_JID_6360_Energie_anion

-1 2
