%chk=JID_4824.chk
%mem=8GB
%nprocshared=4
# opt freq B3LYP/6-31G(d) empiricaldispersion=gd3bj scf=xqc

CID_66223432_JID_4824_neutraal

0 1
C          1.07841       -0.02751       -0.05563
N          0.53947       -1.37299        0.18296
C         -0.68968       -1.29979        0.99733
C         -1.97590       -1.52639        0.18692
C         -2.09833       -2.82183       -0.65463
C         -1.82015       -1.98236       -1.92071
C         -2.25579       -0.73730       -1.11809
O         -2.62535       -2.29724       -3.07139
C          1.58591       -2.20653        0.83073
C          1.33700       -3.75153        0.83064
O          1.26041       -4.42269       -0.43030
C          1.98274       -3.85346       -1.50620
O          2.21292       -4.41931        1.75375
C          3.55129       -4.56726        1.31771
H          1.41300        0.45144        0.87205
H          0.33742        0.62406       -0.52662
H          1.92901       -0.07479       -0.74493
H         -0.67668       -2.04620        1.80104
H         -0.75960       -0.33520        1.51799
H         -2.81423       -1.43042        0.89313
H         -3.10172       -3.26436       -0.63157
H         -1.37405       -3.61147       -0.44666
H         -0.76047       -1.95904       -2.19877
H         -1.66722        0.16568       -1.28766
H         -3.31395       -0.47955       -1.25124
H         -2.32479       -3.18105       -3.34404
H          2.53909       -2.02579        0.31917
H          1.74571       -1.87084        1.86497
H          0.35181       -3.91558        1.27718
H          1.52171       -2.92032       -1.83741
H          3.03261       -3.68920       -1.25245
H          1.94458       -4.55447       -2.34508
H          3.60692       -5.24642        0.46271
H          4.00326       -3.60273        1.07349
H          4.12625       -5.01244        2.13480

--Link1--
%chk=JID_4824.chk
%mem=8GB
%nprocshared=4
# B3LYP/6-311++G(d,p) empiricaldispersion=gd3bj scf=xqc pop=npa geom=check

CID_66223432_JID_4824_Energie_neutraal

0 1

--Link1--
%chk=JID_4824.chk
%mem=8GB
%nprocshared=4
# B3LYP/6-311++G(d,p) empiricaldispersion=gd3bj scf=xqc pop=npa geom=check

CID_66223432_JID_4824_Energie_kation

1 2

--Link1--
%chk=JID_4824.chk
%mem=8GB
%nprocshared=4
# B3LYP/6-311++G(d,p) empiricaldispersion=gd3bj scf=xqc pop=npa geom=check

CID_66223432_JID_4824_Energie_anion

-1 2
