%chk=JID_4289.chk
%mem=8GB
%nprocshared=4
# opt freq B3LYP/6-31G(d) empiricaldispersion=gd3bj scf=xqc

CID_106915769_JID_4289_neutraal

0 1
C          1.03267        0.08232       -0.04643
N         -0.00724        0.92965       -0.57283
C          0.01899        1.66779       -1.71764
O         -0.97705        2.31794       -2.03684
C          1.27356        1.69127       -2.56354
C          2.03995        3.00237       -2.35522
N          2.91661        2.97618       -1.16268
C          4.16178        2.24933       -1.47415
C          3.23648        4.34364       -0.66652
C          2.03830        5.25905       -0.34494
N          2.59215        6.33350        0.49364
C          3.59889        5.67507        1.34831
C          3.93334        4.32025        0.71408
O          3.40512        3.26013        1.52433
H          1.19180       -0.75456       -0.73116
H          0.71393       -0.29433        0.92831
H          1.95834        0.64843        0.06369
H         -0.88908        0.98204       -0.07616
H          1.88773        0.80249       -2.40503
H          0.94173        1.63448       -3.60839
H          2.63382        3.22814       -3.25062
H          1.29694        3.80215       -2.28017
H          4.75230        2.76103       -2.24285
H          4.78756        2.13090       -0.58398
H          3.95405        1.23369       -1.82472
H          3.87894        4.86950       -1.38807
H          1.58339        5.68671       -1.24347
H          1.25945        4.72274        0.21101
H          3.06473        7.00876       -0.10746
H          3.20676        5.56332        2.36467
H          4.49044        6.30952        1.39522
H          5.01347        4.16775        0.62443
H          2.89620        2.70002        0.90336

--Link1--
%chk=JID_4289.chk
%mem=8GB
%nprocshared=4
# B3LYP/6-311++G(d,p) empiricaldispersion=gd3bj scf=xqc pop=npa geom=check

CID_106915769_JID_4289_Energie_neutraal

0 1

--Link1--
%chk=JID_4289.chk
%mem=8GB
%nprocshared=4
# B3LYP/6-311++G(d,p) empiricaldispersion=gd3bj scf=xqc pop=npa geom=check

CID_106915769_JID_4289_Energie_kation

1 2

--Link1--
%chk=JID_4289.chk
%mem=8GB
%nprocshared=4
# B3LYP/6-311++G(d,p) empiricaldispersion=gd3bj scf=xqc pop=npa geom=check

CID_106915769_JID_4289_Energie_anion

-1 2
