%chk=JID_6783.chk
%mem=8GB
%nprocshared=4
# opt freq B3LYP/6-31G(d) empiricaldispersion=gd3bj scf=xqc

CID_151965132_JID_6783_neutraal

0 1
C          1.04270       -0.05225        0.07380
C          0.07766        0.13746       -1.09064
C          0.04738        1.51309       -1.71883
C         -0.43980        1.63878       -3.03118
C         -0.52346        2.88572       -3.67235
C         -0.11334        4.02580       -2.96468
C          0.36396        3.92957       -1.65171
C          0.42799        2.67383       -1.03439
C          0.75790        5.17130       -0.90661
C         -1.02626        3.02945       -5.10546
C          0.03378        2.58604       -6.14287
N          0.24998        1.12618       -6.13654
N          1.40293        0.75111       -5.85793
N          2.45913        0.40303       -5.60944
C         -2.37203        2.36734       -5.32867
C         -3.52288        3.02919       -5.51396
H          1.05545       -1.10293        0.38193
H          0.74337        0.54031        0.94421
H          2.06293        0.23235       -0.20412
H         -0.93728       -0.10897       -0.75620
H          0.35048       -0.59191       -1.86421
H         -0.76223        0.74261       -3.55910
H         -0.17263        5.00621       -3.43391
H          0.77823        2.61423       -0.00709
H          1.41681        5.79224       -1.52240
H         -0.13402        5.74731       -0.64082
H          1.29952        4.93109        0.01420
H         -1.17032        4.10571       -5.28333
H         -0.30807        2.86344       -7.14779
H          0.97372        3.12828       -5.97009
H         -2.38964        1.27927       -5.35154
H         -4.45182        2.48983       -5.67269
H         -3.56943        4.11347       -5.50192

--Link1--
%chk=JID_6783.chk
%mem=8GB
%nprocshared=4
# B3LYP/6-311++G(d,p) empiricaldispersion=gd3bj scf=xqc pop=npa geom=check

CID_151965132_JID_6783_Energie_neutraal

0 1

--Link1--
%chk=JID_6783.chk
%mem=8GB
%nprocshared=4
# B3LYP/6-311++G(d,p) empiricaldispersion=gd3bj scf=xqc pop=npa geom=check

CID_151965132_JID_6783_Energie_kation

1 2

--Link1--
%chk=JID_6783.chk
%mem=8GB
%nprocshared=4
# B3LYP/6-311++G(d,p) empiricaldispersion=gd3bj scf=xqc pop=npa geom=check

CID_151965132_JID_6783_Energie_anion

-1 2
