%chk=JID_3573.chk
%mem=8GB
%nprocshared=4
# opt freq B3LYP/6-31G(d) empiricaldispersion=gd3bj scf=xqc

CID_18615988_JID_3573_neutraal

0 1
C          0.90927        0.00406       -0.04185
C          0.76613        1.12655        0.97417
C          1.16614        2.49923        0.42802
C          0.35193        2.99765       -0.77044
C         -1.15995        3.10224       -0.54585
C         -1.59532        4.00408        0.61382
C         -1.11896        5.45842        0.53616
C         -1.54343        6.22714       -0.71942
C         -3.05255        6.30348       -0.97134
C         -3.92160        6.90677        0.14250
N         -3.74070        8.35893        0.31830
O         -4.78053        8.74517        1.25586
O         -2.48165        8.53218        1.01512
H          0.20478        0.12085       -0.87051
H          0.70456       -0.96074        0.43329
H          1.92392       -0.02869       -0.45105
H         -0.26151        1.14909        1.35249
H          1.40686        0.89934        1.83489
H          1.10350        3.23100        1.24191
H          2.22312        2.46734        0.13442
H          0.74321        3.97698       -1.07074
H          0.52941        2.33766       -1.62811
H         -1.62344        3.45582       -1.47454
H         -1.57175        2.09989       -0.37807
H         -2.68995        3.98382        0.67562
H         -1.24180        3.57501        1.55899
H         -1.47932        5.98617        1.42670
H         -0.02494        5.48606        0.60435
H         -1.12618        7.23903       -0.67057
H         -1.07352        5.76789       -1.59765
H         -3.21732        6.87355       -1.89524
H         -3.42613        5.29384       -1.18226
H         -4.96637        6.73356       -0.14781
H         -3.77230        6.37247        1.08842
H         -5.19887        9.48153        0.77529
H         -2.04866        9.19953        0.45369

--Link1--
%chk=JID_3573.chk
%mem=8GB
%nprocshared=4
# B3LYP/6-311++G(d,p) empiricaldispersion=gd3bj scf=xqc pop=npa geom=check

CID_18615988_JID_3573_Energie_neutraal

0 1

--Link1--
%chk=JID_3573.chk
%mem=8GB
%nprocshared=4
# B3LYP/6-311++G(d,p) empiricaldispersion=gd3bj scf=xqc pop=npa geom=check

CID_18615988_JID_3573_Energie_kation

1 2

--Link1--
%chk=JID_3573.chk
%mem=8GB
%nprocshared=4
# B3LYP/6-311++G(d,p) empiricaldispersion=gd3bj scf=xqc pop=npa geom=check

CID_18615988_JID_3573_Energie_anion

-1 2
