%chk=JID_10871.chk
%mem=8GB
%nprocshared=4
# opt freq B3LYP/6-31G(d) empiricaldispersion=gd3bj scf=xqc

CID_62449221_JID_10871_neutraal

0 1
C          1.03052        0.09402       -0.01510
C          0.42157       -0.88854        0.97768
C          1.08058       -0.84046        2.36004
N          0.77830        0.40790        3.05663
C          1.46362        0.53430        4.35405
C          3.00060        0.71707        4.30946
C          3.49164        1.88157        3.39792
C          2.90157        3.25438        3.73350
C          5.02220        1.97019        3.36032
N          3.53494        0.77203        5.66518
N          3.20476        1.73173        6.54849
C          4.03415        1.42458        7.56261
N          4.79094        0.30519        7.29870
N          4.46005       -0.10745        6.08466
C          4.16134        2.19229        8.79422
C          3.32989        3.29413        9.04509
C          3.47030        4.03900       10.21912
C          4.44374        3.69141       11.15368
C          5.27551        2.59851       10.91841
C          5.13464        1.85180        9.74562
H          0.85160        1.13170        0.28115
H          0.58484       -0.04933       -1.00473
H          2.11071       -0.05848       -0.10557
H         -0.65604       -0.70386        1.06362
H          0.53564       -1.90229        0.57490
H          0.70515       -1.68248        2.95306
H          2.15979       -0.97676        2.23457
H          0.97527        1.21432        2.46717
H          1.00681        1.38456        4.87506
H          1.21556       -0.33928        4.97211
H          3.42277       -0.20634        3.88863
H          3.17557        1.64501        2.37319
H          3.23382        3.61781        4.70986
H          3.21761        3.99378        2.98888
H          1.80818        3.23892        3.72478
H          5.46256        1.00181        3.10085
H          5.34622        2.69468        2.60525
H          5.43485        2.28919        4.32298
H          2.56694        3.58211        8.32426
H          2.82072        4.89143       10.40093
H          4.55501        4.27311       12.06529
H          6.03674        2.32716       11.64556
H          5.79762        1.00469        9.57903

--Link1--
%chk=JID_10871.chk
%mem=8GB
%nprocshared=4
# B3LYP/6-311++G(d,p) empiricaldispersion=gd3bj scf=xqc pop=npa geom=check

CID_62449221_JID_10871_Energie_neutraal

0 1

--Link1--
%chk=JID_10871.chk
%mem=8GB
%nprocshared=4
# B3LYP/6-311++G(d,p) empiricaldispersion=gd3bj scf=xqc pop=npa geom=check

CID_62449221_JID_10871_Energie_kation

1 2

--Link1--
%chk=JID_10871.chk
%mem=8GB
%nprocshared=4
# B3LYP/6-311++G(d,p) empiricaldispersion=gd3bj scf=xqc pop=npa geom=check

CID_62449221_JID_10871_Energie_anion

-1 2
