%chk=JID_4165.chk
%mem=8GB
%nprocshared=4
# opt freq B3LYP/6-31G(d) empiricaldispersion=gd3bj scf=xqc

CID_65155800_JID_4165_neutraal

0 1
C          1.09425       -0.00375        0.03322
C          0.39491       -1.34524        0.19385
C          1.32874       -2.51804        0.48977
O          0.49629       -3.56474        1.02489
C         -0.76187       -2.98125        1.42748
C         -0.62964       -1.45672        1.32296
C         -0.26150       -0.74601        2.58509
N          0.84225       -0.98974        3.30270
N          0.73404       -0.08948        4.29003
C         -0.38149        0.68172        4.13949
N         -1.03361        0.28129        3.07037
C         -0.73860        1.77511        5.06545
C         -1.20189       -3.56348        2.75973
C          2.05777       -3.04310       -0.73577
H          1.75160        0.22574        0.87739
H          0.36225        0.80490       -0.06217
H          1.71309       -0.00035       -0.87016
H         -0.13911       -1.55364       -0.74532
H          2.06696       -2.26212        1.25805
H         -1.48456       -3.30946        0.66808
H         -1.59034       -1.03871        0.99319
H          1.44746       -0.05148        5.00880
H         -1.26003        1.37791        5.94130
H          0.15278        2.31198        5.40502
H         -1.39778        2.49527        4.57091
H         -2.13465       -3.10894        3.10605
H         -1.36103       -4.64311        2.65967
H         -0.43303       -3.44513        3.52941
H          2.71374       -2.28265       -1.16886
H          2.66382       -3.91641       -0.47151
H          1.34939       -3.37609       -1.50217

--Link1--
%chk=JID_4165.chk
%mem=8GB
%nprocshared=4
# B3LYP/6-311++G(d,p) empiricaldispersion=gd3bj scf=xqc pop=npa geom=check

CID_65155800_JID_4165_Energie_neutraal

0 1

--Link1--
%chk=JID_4165.chk
%mem=8GB
%nprocshared=4
# B3LYP/6-311++G(d,p) empiricaldispersion=gd3bj scf=xqc pop=npa geom=check

CID_65155800_JID_4165_Energie_kation

1 2

--Link1--
%chk=JID_4165.chk
%mem=8GB
%nprocshared=4
# B3LYP/6-311++G(d,p) empiricaldispersion=gd3bj scf=xqc pop=npa geom=check

CID_65155800_JID_4165_Energie_anion

-1 2
