%chk=JID_4284.chk
%mem=8GB
%nprocshared=4
# opt freq B3LYP/6-31G(d) empiricaldispersion=gd3bj scf=xqc

CID_80716414_JID_4284_neutraal

0 1
C          0.96813       -0.02132        0.09236
C          0.30035       -0.82560        1.19970
C          0.67892       -0.33898        2.60677
C          0.26453        1.10410        2.94455
N         -1.08983        1.49742        2.54635
S          0.17084       -1.51002        3.88862
O          0.61404       -2.83763        3.51885
O          0.52252       -0.95616        5.17863
N         -1.49895       -1.48836        3.82751
C         -2.20311       -2.58253        3.12581
C         -3.61644       -2.14337        2.81472
C         -4.35318       -2.42562        4.10747
O         -3.66686       -3.49789        4.76615
C         -2.44470       -3.76694        4.05291
H          0.63991        1.02179        0.09379
H          0.71670       -0.44752       -0.88421
H          2.05751       -0.03992        0.19800
H         -0.78602       -0.80490        1.05948
H          0.60159       -1.87308        1.07949
H          1.77570       -0.37511        2.68190
H          0.37635        1.29655        4.01658
H          0.95879        1.79017        2.44412
H         -1.27399        2.44544        2.87756
H         -1.16179        1.54167        1.53046
H         -1.89921       -1.19114        4.72023
H         -1.66163       -2.85874        2.21675
H         -4.02824       -2.77747        2.02004
H         -3.71185       -1.10052        2.49754
H         -4.33443       -1.55755        4.77485
H         -5.39677       -2.70683        3.93926
H         -2.60342       -4.68450        3.47589
H         -1.64205       -3.94214        4.77465

--Link1--
%chk=JID_4284.chk
%mem=8GB
%nprocshared=4
# B3LYP/6-311++G(d,p) empiricaldispersion=gd3bj scf=xqc pop=npa geom=check

CID_80716414_JID_4284_Energie_neutraal

0 1

--Link1--
%chk=JID_4284.chk
%mem=8GB
%nprocshared=4
# B3LYP/6-311++G(d,p) empiricaldispersion=gd3bj scf=xqc pop=npa geom=check

CID_80716414_JID_4284_Energie_kation

1 2

--Link1--
%chk=JID_4284.chk
%mem=8GB
%nprocshared=4
# B3LYP/6-311++G(d,p) empiricaldispersion=gd3bj scf=xqc pop=npa geom=check

CID_80716414_JID_4284_Energie_anion

-1 2
