%chk=JID_4285.chk
%mem=8GB
%nprocshared=4
# opt freq B3LYP/6-31G(d) empiricaldispersion=gd3bj scf=xqc

CID_81978937_JID_4285_neutraal

0 1
C          1.03243       -0.09261       -0.01928
C          1.13050        1.37547        0.37657
C          2.26845        2.11562       -0.33480
C          2.06286        2.32666       -1.84611
C          0.86841        3.23117       -2.22068
C          0.89345        4.63859       -1.60509
N         -0.17370        5.45910       -2.21179
C         -1.27203        5.63929       -1.25896
C          0.27871        6.70015       -2.90228
C          0.91091        7.71922       -1.92412
C          1.33692        6.35195       -3.98333
C         -0.90107        7.42760       -3.62930
C         -1.66550        6.58452       -4.64622
N          3.31463        2.84101       -2.41830
H          0.75404       -0.20591       -1.07088
H          0.26699       -0.59277        0.58273
H          1.98332       -0.60889        0.14583
H          0.17118        1.87311        0.20095
H          1.31255        1.42487        1.45709
H          2.41739        3.08335        0.16040
H          3.19681        1.55166       -0.16962
H          1.89403        1.35154       -2.31679
H          0.83544        3.31544       -3.31587
H         -0.06574        2.73035       -1.93666
H          0.76401        4.56825       -0.51746
H          1.88190        5.08340       -1.73750
H         -0.98500        6.26220       -0.40541
H         -2.15912        6.07518       -1.72611
H         -1.59946        4.66800       -0.86888
H          1.76083        7.29810       -1.37755
H          1.28326        8.59693       -2.46626
H          0.18537        8.08121       -1.18800
H          1.00252        5.53036       -4.62635
H          1.53566        7.21476       -4.63035
H          2.30058        6.06172       -3.55265
H         -1.61364        7.82653       -2.89690
H         -0.51025        8.30992       -4.15497
H         -2.10254        5.69192       -4.19023
H         -2.48424        7.17364       -5.07289
H         -1.02327        6.27182       -5.47436
H          3.17754        3.05196       -3.40619
H          3.57942        3.71773       -1.97224

--Link1--
%chk=JID_4285.chk
%mem=8GB
%nprocshared=4
# B3LYP/6-311++G(d,p) empiricaldispersion=gd3bj scf=xqc pop=npa geom=check

CID_81978937_JID_4285_Energie_neutraal

0 1

--Link1--
%chk=JID_4285.chk
%mem=8GB
%nprocshared=4
# B3LYP/6-311++G(d,p) empiricaldispersion=gd3bj scf=xqc pop=npa geom=check

CID_81978937_JID_4285_Energie_kation

1 2

--Link1--
%chk=JID_4285.chk
%mem=8GB
%nprocshared=4
# B3LYP/6-311++G(d,p) empiricaldispersion=gd3bj scf=xqc pop=npa geom=check

CID_81978937_JID_4285_Energie_anion

-1 2
