%chk=JID_6894.chk
%mem=8GB
%nprocshared=4
# opt freq B3LYP/6-31G(d) empiricaldispersion=gd3bj scf=xqc

CID_85742193_JID_6894_neutraal

0 1
C          2.49200        0.00400       -0.01400
C          0.99246        0.02018       -0.03871
C          0.28042       -1.18836       -0.02005
C         -1.12143       -1.20084       -0.06670
C         -1.80781        0.01757       -0.14260
C         -1.10729        1.22467       -0.16204
C          0.28679        1.22569       -0.11370
C         -1.86509       -2.46190       -0.06743
C         -2.76003       -2.93301       -1.00888
C         -3.30914       -4.21562       -0.67459
C         -2.81185       -4.65492        0.53831
S         -1.70157       -3.55990        1.23553
C         -4.29074       -4.96691       -1.52076
C         -3.67722       -6.20294       -2.12572
O         -3.63807       -7.31302       -1.61846
O         -3.10861       -5.98115       -3.32825
H          2.85184       -0.61959        0.81093
H          2.87858       -0.39081       -0.95882
H          2.90102        1.00948        0.12981
H          0.82689       -2.12898        0.02106
H         -2.89464        0.03400       -0.17675
H         -1.64917        2.16534       -0.21534
H          0.81798        2.17463       -0.13498
H         -3.00087       -2.38464       -1.91283
H         -3.04154       -5.58041        1.05075
H         -5.15641       -5.27376       -0.92200
H         -4.68685       -4.33662       -2.32571
H         -2.70980       -6.84474       -3.56534

--Link1--
%chk=JID_6894.chk
%mem=8GB
%nprocshared=4
# B3LYP/6-311++G(d,p) empiricaldispersion=gd3bj scf=xqc pop=npa geom=check

CID_85742193_JID_6894_Energie_neutraal

0 1

--Link1--
%chk=JID_6894.chk
%mem=8GB
%nprocshared=4
# B3LYP/6-311++G(d,p) empiricaldispersion=gd3bj scf=xqc pop=npa geom=check

CID_85742193_JID_6894_Energie_kation

1 2

--Link1--
%chk=JID_6894.chk
%mem=8GB
%nprocshared=4
# B3LYP/6-311++G(d,p) empiricaldispersion=gd3bj scf=xqc pop=npa geom=check

CID_85742193_JID_6894_Energie_anion

-1 2
