%chk=JID_10088.chk
%mem=8GB
%nprocshared=4
# opt freq B3LYP/6-31G(d) empiricaldispersion=gd3bj scf=xqc

CID_81243834_JID_10088_neutraal

0 1
C          2.44200       -0.09800       -0.00700
C          0.95739        0.06208        0.12736
C          0.13564       -1.06357        0.17830
C         -1.25198       -0.91323        0.33232
C         -1.75308        0.39304        0.40003
C         -0.86499        1.45810        0.35820
N          0.47585        1.32179        0.22082
C         -3.17333        0.71894        0.54399
O         -3.64949        1.44810        1.39489
O         -3.90630        0.24272       -0.47777
N         -2.09692       -2.04099        0.46760
C         -2.14422       -2.87934       -0.73346
C         -3.59385       -3.26892       -1.02489
C         -4.16222       -4.34030       -0.09760
C         -4.16541       -4.02127        1.41392
C         -2.71764       -3.99243        1.94797
C         -1.91375       -2.70268        1.76749
C         -5.03090       -2.79658        1.82898
C         -6.45905       -2.87797        1.27550
C         -5.11145       -2.65725        3.35576
H          2.93512        0.87731       -0.07111
H          2.84426       -0.62802        0.86187
H          2.68187       -0.66030       -0.91480
H          0.57590       -2.05383        0.11800
H         -1.21482        2.48478        0.43128
H         -4.81838        0.53293       -0.27546
H         -1.50180       -3.76274       -0.63475
H         -1.78261       -2.32418       -1.61000
H         -3.64236       -3.65870       -2.04962
H         -4.23754       -2.38266       -1.00457
H         -5.18272       -4.57494       -0.42334
H         -3.59774       -5.26896       -0.25863
H         -4.63108       -4.90222        1.88178
H         -2.72958       -4.22876        3.02020
H         -2.15693       -4.82031        1.49298
H         -2.19887       -1.99722        2.55800
H         -0.85724       -2.94856        1.93841
H         -4.58640       -1.87656        1.43672
H         -6.94480       -3.81508        1.56752
H         -7.07022       -2.05002        1.65160
H         -6.47033       -2.80887        0.18386
H         -4.12856       -2.48372        3.80173
H         -5.74356       -1.80718        3.63521
H         -5.53712       -3.55732        3.81243

--Link1--
%chk=JID_10088.chk
%mem=8GB
%nprocshared=4
# B3LYP/6-311++G(d,p) empiricaldispersion=gd3bj scf=xqc pop=npa geom=check

CID_81243834_JID_10088_Energie_neutraal

0 1

--Link1--
%chk=JID_10088.chk
%mem=8GB
%nprocshared=4
# B3LYP/6-311++G(d,p) empiricaldispersion=gd3bj scf=xqc pop=npa geom=check

CID_81243834_JID_10088_Energie_kation

1 2

--Link1--
%chk=JID_10088.chk
%mem=8GB
%nprocshared=4
# B3LYP/6-311++G(d,p) empiricaldispersion=gd3bj scf=xqc pop=npa geom=check

CID_81243834_JID_10088_Energie_anion

-1 2
