%chk=JID_3331.chk
%mem=8GB
%nprocshared=4
# opt freq B3LYP/6-31G(d) empiricaldispersion=gd3bj scf=xqc

CID_43113296_JID_3331_neutraal

0 1
C          0.91832        0.05036        0.02814
C          0.13501        0.43069       -1.21830
C          0.90957        0.05956       -2.48829
C          0.72797       -1.41419       -2.84954
N          0.48863        0.88839       -3.60946
C          0.95035        2.09490       -4.05115
O          0.27966        2.67006       -4.91522
C          2.24193        2.73958       -3.49671
C          2.06484        3.20543       -2.05541
N          3.40474        1.87831       -3.77260
C          4.67834        2.42784       -3.35333
C          5.04555        2.07051       -1.92229
C          5.36055        1.76398       -0.69475
H          1.07235       -1.03137        0.08787
H          0.36740        0.35648        0.92348
H          1.89787        0.53700        0.05626
H         -0.84759       -0.05619       -1.20724
H         -0.06065        1.50837       -1.18447
H          1.96805        0.22729       -2.30094
H         -0.32403       -1.64879       -3.04697
H          1.29407       -1.66062       -3.75478
H          1.07907       -2.06919       -2.04655
H         -0.38880        0.64857       -4.05709
H          2.37330        3.64534       -4.10602
H          2.18736        2.39174       -1.33916
H          2.79873        3.97794       -1.80156
H          1.06991        3.63732       -1.90203
H          3.29672        0.94086       -3.40765
H          5.45719        2.00549       -3.99910
H          4.72363        3.51438       -3.49122
H          5.62138        1.51603        0.30833

--Link1--
%chk=JID_3331.chk
%mem=8GB
%nprocshared=4
# B3LYP/6-311++G(d,p) empiricaldispersion=gd3bj scf=xqc pop=npa geom=check

CID_43113296_JID_3331_Energie_neutraal

0 1

--Link1--
%chk=JID_3331.chk
%mem=8GB
%nprocshared=4
# B3LYP/6-311++G(d,p) empiricaldispersion=gd3bj scf=xqc pop=npa geom=check

CID_43113296_JID_3331_Energie_kation

1 2

--Link1--
%chk=JID_3331.chk
%mem=8GB
%nprocshared=4
# B3LYP/6-311++G(d,p) empiricaldispersion=gd3bj scf=xqc pop=npa geom=check

CID_43113296_JID_3331_Energie_anion

-1 2
