%chk=JID_4039.chk
%mem=8GB
%nprocshared=4
# opt freq B3LYP/6-31G(d) empiricaldispersion=gd3bj scf=xqc

CID_61319941_JID_4039_neutraal

0 1
C          0.97455        0.07289        0.06356
C          0.93272       -0.01844       -1.45696
C          1.21829       -1.43008       -2.02211
C          0.24296       -2.46044       -1.42152
C          1.14781       -1.45376       -3.58727
C          2.07160       -0.41170       -4.27406
O          3.45297       -0.70440       -4.06549
N          1.53761       -2.80718       -4.03774
C          0.59060       -3.42315       -4.96960
C          0.59788       -2.79284       -6.33057
C         -0.34523       -1.95230       -6.89140
C          0.00441       -1.54791       -8.21205
C          1.19704       -2.09998       -8.62088
S          1.88582       -3.10383       -7.42097
H          0.13414       -0.45454        0.52369
H          0.91051        1.12037        0.37635
H          1.90807       -0.34115        0.45713
H         -0.04372        0.33486       -1.80976
H          1.68289        0.68519       -1.83163
H          2.22940       -1.71936       -1.70547
H         -0.79519       -2.19980       -1.65342
H          0.43175       -3.46952       -1.80085
H          0.34604       -2.52112       -0.33391
H          0.11317       -1.22083       -3.87195
H          1.90691       -0.40981       -5.35571
H          1.87310        0.60754       -3.93398
H          3.58880       -0.83146       -3.11183
H          2.45513       -2.75432       -4.49143
H          0.85023       -4.48484       -5.06476
H         -0.42126       -3.40727       -4.54568
H         -1.24355       -1.63673       -6.37468
H         -0.58871       -0.88641       -8.83158
H          1.69940       -1.96615       -9.56914

--Link1--
%chk=JID_4039.chk
%mem=8GB
%nprocshared=4
# B3LYP/6-311++G(d,p) empiricaldispersion=gd3bj scf=xqc pop=npa geom=check

CID_61319941_JID_4039_Energie_neutraal

0 1

--Link1--
%chk=JID_4039.chk
%mem=8GB
%nprocshared=4
# B3LYP/6-311++G(d,p) empiricaldispersion=gd3bj scf=xqc pop=npa geom=check

CID_61319941_JID_4039_Energie_kation

1 2

--Link1--
%chk=JID_4039.chk
%mem=8GB
%nprocshared=4
# B3LYP/6-311++G(d,p) empiricaldispersion=gd3bj scf=xqc pop=npa geom=check

CID_61319941_JID_4039_Energie_anion

-1 2
