%chk=JID_3930.chk
%mem=8GB
%nprocshared=4
# opt freq B3LYP/6-31G(d) empiricaldispersion=gd3bj scf=xqc

CID_106554771_JID_3930_neutraal

0 1
C          1.03074       -0.01695        0.09364
C          1.03079       -1.38808        0.76404
C          1.85207       -1.52348        2.08191
C          2.23665       -0.18881        2.74148
C          0.97016       -2.30118        3.09260
N          3.06292       -2.34795        1.90055
C          4.02526       -2.03916        1.00021
N          3.98127       -1.16892        0.01961
C          5.18969       -1.23887       -0.62805
C          5.99968       -2.16817       -0.01719
N          5.24870       -2.67211        1.01003
C          5.67861       -3.70155        1.92212
C          5.46014       -0.38689       -1.80460
H          0.54216        0.73021        0.72685
H          0.46692       -0.06526       -0.84418
H          2.03501        0.33721       -0.14514
H         -0.02343       -1.62584        0.96078
H          1.35655       -2.13913        0.03303
H          1.34900        0.40790        2.97843
H          2.78033       -0.35676        3.67914
H          2.89108        0.41368        2.10318
H          0.69859       -3.28853        2.69997
H          1.49502       -2.46334        4.04175
H          0.04505       -1.75696        3.31435
H          3.33842       -2.84254        2.74060
H          7.00475       -2.50399       -0.22869
H          5.70151       -3.28298        2.93159
H          4.97607       -4.53677        1.86483
H          6.67880       -4.04420        1.64431
H          4.63415       -0.45125       -2.51987
H          5.57125        0.65775       -1.49882
H          6.37707       -0.69532       -2.31635

--Link1--
%chk=JID_3930.chk
%mem=8GB
%nprocshared=4
# B3LYP/6-311++G(d,p) empiricaldispersion=gd3bj scf=xqc pop=npa geom=check

CID_106554771_JID_3930_Energie_neutraal

0 1

--Link1--
%chk=JID_3930.chk
%mem=8GB
%nprocshared=4
# B3LYP/6-311++G(d,p) empiricaldispersion=gd3bj scf=xqc pop=npa geom=check

CID_106554771_JID_3930_Energie_kation

1 2

--Link1--
%chk=JID_3930.chk
%mem=8GB
%nprocshared=4
# B3LYP/6-311++G(d,p) empiricaldispersion=gd3bj scf=xqc pop=npa geom=check

CID_106554771_JID_3930_Energie_anion

-1 2
