%chk=JID_10457.chk
%mem=8GB
%nprocshared=4
# opt freq B3LYP/6-31G(d) empiricaldispersion=gd3bj scf=xqc

CID_65262808_JID_10457_neutraal

0 1
C          1.05818       -0.06140        0.05334
C          1.01206        0.02127       -1.46054
O          1.89092       -0.88579       -2.11584
C          3.30910       -0.63448       -2.06299
C          3.68305        0.80555       -2.41488
C          3.97352       -1.13477       -0.81210
N          4.21146       -2.43762       -0.59622
O          4.82362       -2.45396        0.65541
C          4.90322       -1.15496        1.06863
N          4.40404       -0.30485        0.19785
C          5.50067       -0.92286        2.41608
C          4.43367       -0.28333        3.34720
N          4.88651        0.25884        4.64032
C          6.31351        0.09023        4.89872
C          7.16065        0.42446        3.69439
C          8.34083        1.16655        3.81434
C          9.13396        1.40341        2.69267
C          8.76197        0.88802        1.45212
C          7.59215        0.13707        1.32322
C          6.77406       -0.08969        2.43759
H          1.07130       -1.10169        0.39264
H          0.18936        0.44208        0.48858
H          1.94819        0.43337        0.44849
H          0.00265       -0.26091       -1.78049
H          1.16339        1.04659       -1.81127
H          3.71302       -1.25101       -2.87763
H          3.38918        1.50736       -1.62678
H          4.76491        0.90637       -2.55449
H          3.18174        1.12050       -3.33618
H          5.77421       -1.90069        2.83923
H          3.64167       -1.02062        3.53422
H          3.94183        0.54904        2.82602
H          4.33989       -0.12804        5.40664
H          6.58504        0.73597        5.74122
H          6.52462       -0.94259        5.20230
H          8.64786        1.56328        4.77884
H         10.04673        1.98605        2.78625
H          9.38632        1.07017        0.58096
H          7.33367       -0.25650        0.34304

--Link1--
%chk=JID_10457.chk
%mem=8GB
%nprocshared=4
# B3LYP/6-311++G(d,p) empiricaldispersion=gd3bj scf=xqc pop=npa geom=check

CID_65262808_JID_10457_Energie_neutraal

0 1

--Link1--
%chk=JID_10457.chk
%mem=8GB
%nprocshared=4
# B3LYP/6-311++G(d,p) empiricaldispersion=gd3bj scf=xqc pop=npa geom=check

CID_65262808_JID_10457_Energie_kation

1 2

--Link1--
%chk=JID_10457.chk
%mem=8GB
%nprocshared=4
# B3LYP/6-311++G(d,p) empiricaldispersion=gd3bj scf=xqc pop=npa geom=check

CID_65262808_JID_10457_Energie_anion

-1 2
