%chk=JID_4261.chk
%mem=8GB
%nprocshared=4
# opt freq B3LYP/6-31G(d) empiricaldispersion=gd3bj scf=xqc

CID_140900653_JID_4261_neutraal

0 1
C          1.05362        0.03862        0.07506
C          0.33491        0.04557        1.42960
C          0.84252        1.08809        2.43489
C          0.12763        2.44551        2.40021
C         -1.32073        2.32649        2.89112
O         -1.69918        2.40366        4.05042
O         -2.20554        2.13878        1.89335
N          0.86219        3.37944        3.29187
C          0.78826        1.27088       -0.78964
C          1.39566        1.15531       -2.18896
N          0.67076        0.16269       -2.97471
C          1.22455       -0.95353       -3.27321
N          2.45802       -1.47506       -2.95767
N          2.63001       -2.86923       -3.03728
H          0.72076       -0.85884       -0.45927
H          2.13329       -0.07583        0.23107
H         -0.74630        0.12065        1.28006
H          0.50560       -0.94324        1.87647
H          0.71881        0.65996        3.43986
H          1.92242        1.22503        2.29269
H          0.12403        2.88900        1.40249
H         -3.07468        2.09308        2.34378
H          0.37790        4.27839        3.28828
H          0.76003        3.03930        4.25239
H         -0.29159        1.44522       -0.86766
H          1.23230        2.14940       -0.31098
H          1.28381        2.12095       -2.69620
H          2.47367        0.97533       -2.12829
H          0.62996       -1.64871       -3.89250
H          2.99373       -0.98483       -2.24313
H          1.95772       -3.35393       -2.43613
H          2.45548       -3.20001       -3.99008

--Link1--
%chk=JID_4261.chk
%mem=8GB
%nprocshared=4
# B3LYP/6-311++G(d,p) empiricaldispersion=gd3bj scf=xqc pop=npa geom=check

CID_140900653_JID_4261_Energie_neutraal

0 1

--Link1--
%chk=JID_4261.chk
%mem=8GB
%nprocshared=4
# B3LYP/6-311++G(d,p) empiricaldispersion=gd3bj scf=xqc pop=npa geom=check

CID_140900653_JID_4261_Energie_kation

1 2

--Link1--
%chk=JID_4261.chk
%mem=8GB
%nprocshared=4
# B3LYP/6-311++G(d,p) empiricaldispersion=gd3bj scf=xqc pop=npa geom=check

CID_140900653_JID_4261_Energie_anion

-1 2
