%chk=JID_4775.chk
%mem=8GB
%nprocshared=4
# opt freq B3LYP/6-31G(d) empiricaldispersion=gd3bj scf=xqc

CID_145652393_JID_4775_neutraal

0 1
C          0.97878        0.00193        0.09770
C          0.27490        0.23535       -1.21978
C         -1.59384       -2.67502        2.35258
C         -1.11792       -4.08109        2.07785
O         -1.75596       -5.05485        2.48915
C          0.12858       -4.27754        1.20878
C         -0.26455       -4.02279       -0.26094
C          0.78810       -4.45840       -1.22461
C          1.76555       -3.75948       -1.89988
N          2.51930       -4.60017       -2.67472
C          2.00293       -5.79382       -2.49876
N          0.94712       -5.76022       -1.63328
N          1.23246       -3.39642        1.65479
C          1.80629       -3.84749        2.92033
H          0.28301       -0.40235        0.83857
H          1.38810        0.93924        0.48607
H          1.80222       -0.70732       -0.02644
H         -0.13567       -0.70086       -1.60892
H         -0.54746        0.94608       -1.09517
H          0.97084        0.63984       -1.96070
H         -2.51283       -2.71381        2.94504
H         -1.81044       -2.16125        1.41356
H         -0.84324       -2.12356        2.92273
H          0.44209       -5.32542        1.31184
H         -1.19880       -4.55192       -0.49213
H         -0.47868       -2.95819       -0.41881
H          1.97090       -2.69683       -1.86429
H          2.34441       -6.70807       -2.96581
H          0.39080       -6.55635       -1.35127
H          1.97157       -3.42423        0.94786
H          2.21410       -4.86010        2.83703
H          2.62584       -3.17884        3.20176
H          1.07205       -3.82157        3.73119

--Link1--
%chk=JID_4775.chk
%mem=8GB
%nprocshared=4
# B3LYP/6-311++G(d,p) empiricaldispersion=gd3bj scf=xqc pop=npa geom=check

CID_145652393_JID_4775_Energie_neutraal

0 1

--Link1--
%chk=JID_4775.chk
%mem=8GB
%nprocshared=4
# B3LYP/6-311++G(d,p) empiricaldispersion=gd3bj scf=xqc pop=npa geom=check

CID_145652393_JID_4775_Energie_kation

1 2

--Link1--
%chk=JID_4775.chk
%mem=8GB
%nprocshared=4
# B3LYP/6-311++G(d,p) empiricaldispersion=gd3bj scf=xqc pop=npa geom=check

CID_145652393_JID_4775_Energie_anion

-1 2
