%chk=JID_8817.chk
%mem=8GB
%nprocshared=4
# opt freq B3LYP/6-31G(d) empiricaldispersion=gd3bj scf=xqc

CID_64822509_JID_8817_neutraal

0 1
C          1.05723       -0.08160       -0.00809
O          0.53646       -1.26463       -0.59958
C          0.77870       -1.36958       -2.00266
C          0.09360       -0.28924       -2.86065
N          1.06569        0.64343       -3.47015
C          1.70086        0.20510       -4.72752
C          0.80058        0.35127       -5.95927
C          0.59773        1.75675       -6.32743
N          0.44941        2.86641       -6.62957
C          1.25933        1.88607       -2.86544
O          0.52872        2.24666       -1.93973
C          2.43367        2.77612       -3.30889
C          2.12814        4.26313       -3.01176
C          2.29558        4.66997       -1.54556
C          3.63754        4.23699       -0.97417
C          3.88860        2.75016       -1.19277
C          3.79348        2.37979       -2.67961
N          4.16710        0.97079       -2.85913
H          0.33477        0.72941       -0.10199
H          2.02671        0.18537       -0.43291
H          1.19318       -0.27315        1.06031
H          1.85978       -1.41839       -2.17688
H          0.37147       -2.34426       -2.29450
H         -0.44842       -0.77482       -3.67887
H         -0.65074        0.25748       -2.27347
H          2.63479        0.73861       -4.90691
H          1.96852       -0.85088       -4.60195
H          1.27503       -0.16771       -6.80053
H         -0.16839       -0.13171       -5.79765
H          2.51367        2.71128       -4.39782
H          1.11158        4.51334       -3.33950
H          2.80797        4.87938       -3.61469
H          1.49135        4.24368       -0.93629
H          2.19692        5.75821       -1.45795
H          3.67186        4.46192        0.09805
H          4.44028        4.81633       -1.44617
H          3.16863        2.17107       -0.60382
H          4.88441        2.50177       -0.80412
H          4.56115        2.96099       -3.20858
H          5.11532        0.83090       -2.50544
H          3.57468        0.38809       -2.26596

--Link1--
%chk=JID_8817.chk
%mem=8GB
%nprocshared=4
# B3LYP/6-311++G(d,p) empiricaldispersion=gd3bj scf=xqc pop=npa geom=check

CID_64822509_JID_8817_Energie_neutraal

0 1

--Link1--
%chk=JID_8817.chk
%mem=8GB
%nprocshared=4
# B3LYP/6-311++G(d,p) empiricaldispersion=gd3bj scf=xqc pop=npa geom=check

CID_64822509_JID_8817_Energie_kation

1 2

--Link1--
%chk=JID_8817.chk
%mem=8GB
%nprocshared=4
# B3LYP/6-311++G(d,p) empiricaldispersion=gd3bj scf=xqc pop=npa geom=check

CID_64822509_JID_8817_Energie_anion

-1 2
