%chk=JID_2432.chk
%mem=8GB
%nprocshared=4
# opt freq B3LYP/6-31G(d) empiricaldispersion=gd3bj scf=xqc

CID_153932388_JID_2432_neutraal

0 1
C          1.00494       -0.05325       -0.08450
C          0.36675        1.29165       -0.29051
C          0.19745        0.57581        1.03901
C          0.98418        1.10684        2.18179
C          0.71735        0.81400        3.46443
C         -0.41730       -0.08904        3.86103
C         -0.99231       -0.88839        2.67779
C         -1.17598        0.00943        1.43745
N         -1.82377       -0.77405        0.37439
C         -3.11798       -1.25565        0.80792
N         -2.90384       -2.20902        1.87507
C         -2.32066       -1.54858        3.04397
H          0.59269       -0.90495       -0.61370
H          2.08467       -0.09630        0.00948
H         -0.47330        1.35577       -0.97094
H          1.01969        2.15627       -0.34491
H          1.81728        1.77247        1.96414
H          1.32109        1.24752        4.25700
H         -1.19706        0.52761        4.32459
H         -0.06524       -0.78943        4.62778
H         -0.26960       -1.68234        2.43057
H         -1.81997        0.86548        1.68740
H         -1.96480       -0.16882       -0.43047
H         -3.60315       -1.77107       -0.02775
H         -3.79086       -0.44261        1.10739
H         -2.22973       -2.88385        1.51379
H         -3.03093       -0.81599        3.44742
H         -2.16131       -2.29530        3.83019

--Link1--
%chk=JID_2432.chk
%mem=8GB
%nprocshared=4
# B3LYP/6-311++G(d,p) empiricaldispersion=gd3bj scf=xqc pop=npa geom=check

CID_153932388_JID_2432_Energie_neutraal

0 1

--Link1--
%chk=JID_2432.chk
%mem=8GB
%nprocshared=4
# B3LYP/6-311++G(d,p) empiricaldispersion=gd3bj scf=xqc pop=npa geom=check

CID_153932388_JID_2432_Energie_kation

1 2

--Link1--
%chk=JID_2432.chk
%mem=8GB
%nprocshared=4
# B3LYP/6-311++G(d,p) empiricaldispersion=gd3bj scf=xqc pop=npa geom=check

CID_153932388_JID_2432_Energie_anion

-1 2
