%chk=JID_10970.chk
%mem=8GB
%nprocshared=4
# opt freq B3LYP/6-31G(d) empiricaldispersion=gd3bj scf=xqc

CID_110799054_JID_10970_neutraal

0 1
C          2.34700       -0.19300        0.01200
C          0.89348       -0.52073        0.03964
C          0.29295       -1.75331        0.18295
C         -1.13000       -1.66469        0.15988
C         -1.57603       -0.36666       -0.00199
S         -0.26386        0.72904       -0.11841
S         -3.19395        0.37676       -0.10597
O         -3.32009        1.17374        1.09555
O         -3.25438        0.97062       -1.42475
N         -4.36804       -0.86132       -0.03930
C         -4.52414       -1.55967        1.26401
C         -6.00106       -1.84593        1.52380
C         -6.45653       -3.19265        0.96227
N         -5.94369       -3.50630       -0.36441
C         -5.83563       -2.42320       -1.34424
C         -4.47581       -1.71587       -1.25733
C         -5.49230       -4.78987       -0.62921
O         -5.54922       -5.71709        0.16908
O         -4.94310       -4.89945       -1.87028
C         -4.46408       -6.20763       -2.18575
H          2.62111        0.27766       -0.93790
H          2.60722        0.48848        0.82861
H          2.95379       -1.09759        0.12471
H          0.84690       -2.67775        0.29954
H         -1.78679       -2.51832        0.25719
H         -4.16900       -0.91681        2.07598
H         -3.92161       -2.47314        1.29530
H         -6.18570       -1.85644        2.60516
H         -6.62223       -1.03857        1.11597
H         -6.17123       -3.98313        1.66566
H         -7.55085       -3.20933        0.89832
H         -6.66612       -1.72349       -1.19610
H         -5.95392       -2.84047       -2.35042
H         -4.38629       -1.08961       -2.15083
H         -3.65931       -2.44462       -1.27255
H         -3.65841       -6.49514       -1.50299
H         -5.28124       -6.93501       -2.15292
H         -4.06293       -6.18433       -3.20276

--Link1--
%chk=JID_10970.chk
%mem=8GB
%nprocshared=4
# B3LYP/6-311++G(d,p) empiricaldispersion=gd3bj scf=xqc pop=npa geom=check

CID_110799054_JID_10970_Energie_neutraal

0 1

--Link1--
%chk=JID_10970.chk
%mem=8GB
%nprocshared=4
# B3LYP/6-311++G(d,p) empiricaldispersion=gd3bj scf=xqc pop=npa geom=check

CID_110799054_JID_10970_Energie_kation

1 2

--Link1--
%chk=JID_10970.chk
%mem=8GB
%nprocshared=4
# B3LYP/6-311++G(d,p) empiricaldispersion=gd3bj scf=xqc pop=npa geom=check

CID_110799054_JID_10970_Energie_anion

-1 2
