%chk=JID_7808.chk
%mem=8GB
%nprocshared=4
# opt freq B3LYP/6-31G(d) empiricaldispersion=gd3bj scf=xqc

CID_114760946_JID_7808_neutraal

0 1
C          1.03786        0.06502        0.06587
N          0.13803        0.52362       -0.98069
C         -1.21817       -0.05204       -0.98608
C         -2.34903        0.94104       -0.64536
C         -3.66589        0.24582       -0.29681
C         -4.36467        1.20448        0.66676
N         -3.42798        2.29827        0.95915
C         -2.09231        1.77177        0.61171
O         -2.58426        1.83060       -1.75892
C          0.70672        1.16874       -2.07135
O          1.91689        1.30813       -2.21939
N         -0.19995        1.63531       -2.98347
C          0.23225        2.35273       -4.17898
C          0.73750        1.39519       -5.23856
C         -0.55040        0.90927       -5.87473
O         -1.51335        1.96889       -5.75535
C         -0.94565        2.98725       -4.91205
H          1.31516       -0.97288       -0.14120
H          0.53082        0.12606        1.03279
H          1.94482        0.67477        0.10870
H         -1.39226       -0.47820       -1.98213
H         -1.22508       -0.88778       -0.27572
H         -4.28770        0.05214       -1.17712
H         -3.48795       -0.70616        0.21738
H         -4.63464        0.68609        1.59314
H         -5.28723        1.60313        0.23144
H         -3.61961        3.05217        0.29224
H         -1.71905        1.16079        1.44118
H         -1.40082        2.60213        0.43730
H         -3.03616        1.31861       -2.45709
H         -1.04269        1.98825       -2.53690
H          0.97788        3.09723       -3.88207
H          1.32307        1.94894       -5.98277
H          1.35371        0.57168       -4.86725
H         -0.95024        0.03602       -5.34824
H         -0.42280        0.64908       -6.92939
H         -1.71999        3.38049       -4.24676
H         -0.60481        3.79677       -5.56731

--Link1--
%chk=JID_7808.chk
%mem=8GB
%nprocshared=4
# B3LYP/6-311++G(d,p) empiricaldispersion=gd3bj scf=xqc pop=npa geom=check

CID_114760946_JID_7808_Energie_neutraal

0 1

--Link1--
%chk=JID_7808.chk
%mem=8GB
%nprocshared=4
# B3LYP/6-311++G(d,p) empiricaldispersion=gd3bj scf=xqc pop=npa geom=check

CID_114760946_JID_7808_Energie_kation

1 2

--Link1--
%chk=JID_7808.chk
%mem=8GB
%nprocshared=4
# B3LYP/6-311++G(d,p) empiricaldispersion=gd3bj scf=xqc pop=npa geom=check

CID_114760946_JID_7808_Energie_anion

-1 2
