%chk=JID_2416.chk
%mem=8GB
%nprocshared=4
# opt freq B3LYP/6-31G(d) empiricaldispersion=gd3bj scf=xqc

CID_84081942_JID_2416_neutraal

0 1
C          1.00706        0.08581        0.05087
C          0.33461       -0.72149        1.15752
C          0.92142       -0.30124        2.51177
C         -1.20221       -0.58212        1.20812
C         -1.96269       -1.12048       -0.01616
C         -1.59040       -2.55868       -0.46229
O         -2.98224       -2.96172       -0.44770
C         -3.31710       -1.79610        0.34511
C         -2.12339       -0.14932       -1.20561
C         -2.92035        1.11832       -0.86313
N         -2.03433        2.27515       -0.72588
C         -2.79202        3.48847       -0.44928
H          0.69133        1.13273        0.06634
H          0.79040       -0.33755       -0.93274
H          2.09706        0.06612        0.16283
H          0.59890       -1.77455        1.00759
H          0.71044        0.75215        2.72572
H          0.50151       -0.90446        3.32376
H          2.00789       -0.43949        2.52656
H         -1.53483       -1.14197        2.09353
H         -1.48176        0.45600        1.41489
H         -1.14910       -2.65289       -1.45886
H         -1.01580       -3.16499        0.24499
H         -3.46852       -2.07402        1.39365
H         -4.22537       -1.31110       -0.02421
H         -1.15577        0.10297       -1.64784
H         -2.66658       -0.66461       -2.01103
H         -3.61377        1.31355       -1.69053
H         -3.51940        0.98349        0.04413
H         -1.36689        2.12018        0.02674
H         -3.34707        3.40871        0.49103
H         -2.10422        4.33542       -0.36365
H         -3.49116        3.71338       -1.26111

--Link1--
%chk=JID_2416.chk
%mem=8GB
%nprocshared=4
# B3LYP/6-311++G(d,p) empiricaldispersion=gd3bj scf=xqc pop=npa geom=check

CID_84081942_JID_2416_Energie_neutraal

0 1

--Link1--
%chk=JID_2416.chk
%mem=8GB
%nprocshared=4
# B3LYP/6-311++G(d,p) empiricaldispersion=gd3bj scf=xqc pop=npa geom=check

CID_84081942_JID_2416_Energie_kation

1 2

--Link1--
%chk=JID_2416.chk
%mem=8GB
%nprocshared=4
# B3LYP/6-311++G(d,p) empiricaldispersion=gd3bj scf=xqc pop=npa geom=check

CID_84081942_JID_2416_Energie_anion

-1 2
