%chk=JID_9672.chk
%mem=8GB
%nprocshared=4
# opt freq B3LYP/6-31G(d) empiricaldispersion=gd3bj scf=xqc

CID_82936860_JID_9672_neutraal

0 1
C          0.92418       -0.04555       -0.04666
C          0.27133        1.11305       -0.78970
C          1.08699        1.63019       -1.99870
C          1.35174        0.49393       -3.00163
C          0.37272        2.83126       -2.70902
C          0.07082        4.03924       -1.78279
N          1.27902        4.76605       -1.31463
C          2.10912        5.22834       -2.46664
C          3.53863        5.70970       -2.07982
C          3.68838        7.13639       -2.60403
C          2.27579        7.65126       -2.80107
C          1.51389        6.42144       -3.26313
C          2.32969        4.01858       -3.46444
N          1.11030        3.31554       -3.89929
C          0.93658        5.60011       -0.15214
C          2.00176        6.38101        0.62144
C          1.17652        7.12469        1.66454
C         -0.07405        7.56431        0.91281
C         -0.22045        6.60970       -0.27737
H          0.91999       -0.96190       -0.64374
H          0.37194       -0.25640        0.87515
H          1.95731        0.19229        0.22520
H         -0.73228        0.81310       -1.11405
H          0.14521        1.91776       -0.05863
H          2.05734        1.96090       -1.60873
H          0.41228        0.07201       -3.37437
H          1.93335        0.84022       -3.86165
H          1.93207       -0.31409       -2.54621
H         -0.59302        2.45715       -3.07503
H         -0.59118        4.73015       -2.32202
H         -0.52378        3.68901       -0.93253
H          3.73025        5.66065       -1.00771
H          4.32767        5.08461       -2.51679
H          4.21316        7.11865       -3.56698
H          4.26759        7.76728       -1.92324
H          2.23615        8.45754       -3.53994
H          1.86826        8.04471       -1.86714
H          1.68620        6.29450       -4.34008
H          0.43413        6.54303       -3.15416
H          3.02093        3.29113       -3.02122
H          2.84148        4.37508       -4.36810
H          0.51859        3.98953       -4.38405
H          0.58721        4.86246        0.58987
H          2.74179        5.72673        1.09253
H          2.51977        7.11890        0.00769
H          1.71817        7.97003        2.09898
H          0.90213        6.44604        2.48116
H          0.04181        8.59211        0.54985
H         -0.95549        7.54338        1.56171
H         -0.17858        7.19036       -1.20019
H         -1.19448        6.10859       -0.25487

--Link1--
%chk=JID_9672.chk
%mem=8GB
%nprocshared=4
# B3LYP/6-311++G(d,p) empiricaldispersion=gd3bj scf=xqc pop=npa geom=check

CID_82936860_JID_9672_Energie_neutraal

0 1

--Link1--
%chk=JID_9672.chk
%mem=8GB
%nprocshared=4
# B3LYP/6-311++G(d,p) empiricaldispersion=gd3bj scf=xqc pop=npa geom=check

CID_82936860_JID_9672_Energie_kation

1 2

--Link1--
%chk=JID_9672.chk
%mem=8GB
%nprocshared=4
# B3LYP/6-311++G(d,p) empiricaldispersion=gd3bj scf=xqc pop=npa geom=check

CID_82936860_JID_9672_Energie_anion

-1 2
