%chk=JID_10389.chk
%mem=8GB
%nprocshared=4
# opt freq B3LYP/6-31G(d) empiricaldispersion=gd3bj scf=xqc

CID_63124605_JID_10389_neutraal

0 1
C         -2.53900       -0.00300       -0.12500
C         -1.06408        0.10997        0.28608
C         -0.30703        0.92207       -0.78592
C          1.20320        0.91097       -0.56941
N          1.71660       -0.44984       -0.43641
C          1.07911       -1.21060        0.63192
C         -0.42893       -1.29463        0.40216
C          3.06238       -0.58996       -0.68100
O          3.83781        0.36651       -0.72940
N          3.57699       -1.81348       -0.94248
C          2.97008       -3.05314       -1.38625
C          2.62804       -3.18952       -2.88600
C          3.68639       -2.64003       -3.85447
C          3.60779       -1.13013       -4.09996
C          2.21045       -0.59349       -4.14049
C          1.13648       -1.29930       -3.76557
C          1.21239       -2.69680       -3.23970
C         -1.02785        0.85410        1.61784
O         -0.87210        2.05293        1.77542
O         -1.25464        0.06517        2.68607
H         -3.00885        0.98510       -0.19346
H         -2.64625       -0.49533       -1.09788
H         -3.11056       -0.58417        0.60787
H         -0.51805        0.49520       -1.77484
H         -0.65834        1.96094       -0.81584
H          1.48228        1.47328        0.33027
H          1.68849        1.40396       -1.42058
H          1.30403       -0.70113        1.57767
H          1.50832       -2.20612        0.73936
H         -0.88804       -1.87698        1.20950
H         -0.61571       -1.85241       -0.52437
H          4.56606       -1.72153       -1.13686
H          3.71705       -3.82031       -1.14472
H          2.09152       -3.29427       -0.78918
H          2.59847       -4.27812       -3.04771
H          4.69547       -2.91188       -3.52276
H          3.54373       -3.14176       -4.82200
H          4.17312       -0.58906       -3.33539
H          4.09874       -0.90674       -5.05481
H          2.08344        0.42873       -4.48814
H          0.14961       -0.84941       -3.83494
H          0.79693       -3.35440       -4.01480
H          0.54803       -2.79682       -2.37498
H         -1.24065        0.68574        3.44574

--Link1--
%chk=JID_10389.chk
%mem=8GB
%nprocshared=4
# B3LYP/6-311++G(d,p) empiricaldispersion=gd3bj scf=xqc pop=npa geom=check

CID_63124605_JID_10389_Energie_neutraal

0 1

--Link1--
%chk=JID_10389.chk
%mem=8GB
%nprocshared=4
# B3LYP/6-311++G(d,p) empiricaldispersion=gd3bj scf=xqc pop=npa geom=check

CID_63124605_JID_10389_Energie_kation

1 2

--Link1--
%chk=JID_10389.chk
%mem=8GB
%nprocshared=4
# B3LYP/6-311++G(d,p) empiricaldispersion=gd3bj scf=xqc pop=npa geom=check

CID_63124605_JID_10389_Energie_anion

-1 2
