%chk=JID_3240.chk
%mem=8GB
%nprocshared=4
# opt freq B3LYP/6-31G(d) empiricaldispersion=gd3bj scf=xqc

CID_62077368_JID_3240_neutraal

0 1
C          0.95301        0.03256        0.08205
C          0.22884       -0.91542        1.06314
C          0.75444       -0.62570        2.48104
C         -1.27774       -0.60396        0.99280
C          0.50639       -2.36685        0.67962
N          1.32137       -2.72878       -0.28820
C          1.37909       -4.10997       -0.39288
C          0.59127       -4.80683        0.51238
S         -0.23132       -3.67915        1.51457
N          0.39942       -6.13108        0.70786
C          2.29982       -4.67566       -1.47667
C          3.02559       -5.98719       -1.27723
C          1.91260       -5.90428       -2.26847
H          0.76771        1.08298        0.33478
H          0.61394       -0.12472       -0.94887
H          2.03818       -0.12413        0.10064
H          0.62147        0.43025        2.74334
H          0.22982       -1.21699        3.23992
H          1.82269       -0.85860        2.56371
H         -1.68607       -0.83899        0.00279
H         -1.85030       -1.17710        1.73053
H         -1.47064        0.45695        1.19030
H          0.68233       -6.81078        0.01241
H         -0.36954       -6.43388        1.29735
H          2.82940       -3.90133       -2.02483
H          4.04078       -6.05323       -1.65456
H          2.88082       -6.53478       -0.35513
H          0.96832       -6.38823       -2.06054
H          2.17018       -5.91482       -3.32271

--Link1--
%chk=JID_3240.chk
%mem=8GB
%nprocshared=4
# B3LYP/6-311++G(d,p) empiricaldispersion=gd3bj scf=xqc pop=npa geom=check

CID_62077368_JID_3240_Energie_neutraal

0 1

--Link1--
%chk=JID_3240.chk
%mem=8GB
%nprocshared=4
# B3LYP/6-311++G(d,p) empiricaldispersion=gd3bj scf=xqc pop=npa geom=check

CID_62077368_JID_3240_Energie_kation

1 2

--Link1--
%chk=JID_3240.chk
%mem=8GB
%nprocshared=4
# B3LYP/6-311++G(d,p) empiricaldispersion=gd3bj scf=xqc pop=npa geom=check

CID_62077368_JID_3240_Energie_anion

-1 2
