%chk=JID_8895.chk
%mem=8GB
%nprocshared=4
# opt freq B3LYP/6-31G(d) empiricaldispersion=gd3bj scf=xqc

CID_115356318_JID_8895_neutraal

0 1
C          0.90567       -0.03282       -0.00503
C          1.69388        1.25716        0.26779
C          3.20432        0.98647        0.21721
C          1.36218        2.26545       -0.85230
N          1.27202        1.86516        1.54449
C          1.40273        1.47395        2.84260
O          0.79981        2.11931        3.70570
C          2.30716        0.30409        3.21574
N          2.09890       -0.05879        4.60817
C          2.56997       -1.19173        5.22152
O          2.43409       -1.40079        6.41939
C          3.23823       -2.25160        4.31970
O          4.18913       -1.95094        3.60882
N          2.68560       -3.51073        4.29638
C          1.65981       -3.99380        5.20771
C          1.05702       -5.25738        4.61340
S          1.17993       -6.75439        5.33085
N          0.40405       -5.11556        3.42104
H          1.14571       -0.43992       -0.99390
H         -0.17421        0.15305        0.02788
H          1.11964       -0.81467        0.72766
H          3.52344        0.72362       -0.79818
H          3.77431        1.86843        0.53041
H          3.49925        0.15260        0.85905
H          0.29020        2.49506       -0.87405
H          1.89413        3.21196       -0.69985
H          1.64026        1.87718       -1.83859
H          0.62044        2.64078        1.47801
H          2.08988       -0.56645        2.59858
H          3.35146        0.60831        3.10603
H          1.69226        0.64599        5.21705
H          3.24428       -4.19318        3.79757
H          2.11946       -4.17251        6.18425
H          0.87388       -3.23825        5.30674
H          0.35738       -4.22983        2.93197
H         -0.00389       -5.92938        2.97477

--Link1--
%chk=JID_8895.chk
%mem=8GB
%nprocshared=4
# B3LYP/6-311++G(d,p) empiricaldispersion=gd3bj scf=xqc pop=npa geom=check

CID_115356318_JID_8895_Energie_neutraal

0 1

--Link1--
%chk=JID_8895.chk
%mem=8GB
%nprocshared=4
# B3LYP/6-311++G(d,p) empiricaldispersion=gd3bj scf=xqc pop=npa geom=check

CID_115356318_JID_8895_Energie_kation

1 2

--Link1--
%chk=JID_8895.chk
%mem=8GB
%nprocshared=4
# B3LYP/6-311++G(d,p) empiricaldispersion=gd3bj scf=xqc pop=npa geom=check

CID_115356318_JID_8895_Energie_anion

-1 2
