%chk=JID_7888.chk
%mem=8GB
%nprocshared=4
# opt freq B3LYP/6-31G(d) empiricaldispersion=gd3bj scf=xqc

CID_43830245_JID_7888_neutraal

0 1
C          1.00167       -0.06593       -0.07517
C          0.32245       -0.67769       -1.28856
C          0.37540       -2.21179       -1.29982
C         -0.46242       -2.88673       -0.21786
O          0.06711       -2.73051       -2.61527
C         -1.15577       -2.51912       -3.15665
O         -2.10795       -1.97676       -2.62142
C         -1.16424       -2.97680       -4.57166
C         -0.14640       -3.78947       -5.09665
C         -0.14064       -4.13205       -6.45014
C         -1.23389       -3.74761       -7.24354
C         -2.25205       -2.94101       -6.73757
C         -2.21657       -2.55564       -5.39772
O         -1.24441       -4.09227       -8.57281
C         -2.04819       -5.26113       -8.77203
C         -1.69886       -5.83272      -10.13384
N          0.82362       -5.02902       -6.94659
H          0.49792       -0.35254        0.85266
H          0.97961        1.02652       -0.14258
H          2.04865       -0.37876       -0.01146
H         -0.71477       -0.32680       -1.32652
H          0.80310       -0.29495       -2.19743
H          1.41746       -2.51153       -1.13322
H         -1.50432       -2.55412       -0.24171
H         -0.46859       -3.97257       -0.36107
H         -0.06634       -2.67368        0.77960
H          0.65296       -4.14972       -4.45497
H         -3.06158       -2.61023       -7.38127
H         -3.00722       -1.92207       -4.99972
H         -1.85546       -6.01939       -8.00261
H         -3.10852       -4.98442       -8.74793
H         -0.63568       -6.09236      -10.17897
H         -2.29002       -6.72764      -10.34602
H         -1.87905       -5.09327      -10.92113
H          0.88620       -4.96287       -7.96204
H          1.72959       -4.94157       -6.49804

--Link1--
%chk=JID_7888.chk
%mem=8GB
%nprocshared=4
# B3LYP/6-311++G(d,p) empiricaldispersion=gd3bj scf=xqc pop=npa geom=check

CID_43830245_JID_7888_Energie_neutraal

0 1

--Link1--
%chk=JID_7888.chk
%mem=8GB
%nprocshared=4
# B3LYP/6-311++G(d,p) empiricaldispersion=gd3bj scf=xqc pop=npa geom=check

CID_43830245_JID_7888_Energie_kation

1 2

--Link1--
%chk=JID_7888.chk
%mem=8GB
%nprocshared=4
# B3LYP/6-311++G(d,p) empiricaldispersion=gd3bj scf=xqc pop=npa geom=check

CID_43830245_JID_7888_Energie_anion

-1 2
