%chk=JID_8905.chk
%mem=8GB
%nprocshared=4
# opt freq B3LYP/6-31G(d) empiricaldispersion=gd3bj scf=xqc

CID_113382797_JID_8905_neutraal

0 1
C          0.96809        0.01603        0.09341
C          1.10918        0.86332       -1.16971
C          1.24597        0.01721       -2.45083
O          0.17118       -0.93168       -2.56288
C          0.58409       -2.23364       -2.62807
C          1.50656       -2.72857       -3.55568
C          1.91637       -4.06148       -3.49534
C          1.35955       -4.92304       -2.54250
C          0.37124       -4.44870       -1.67277
C         -0.01496       -3.10728       -1.72018
C          1.81488       -6.34285       -2.49175
N          2.23019       -6.90548       -3.59298
O          2.59719       -8.23865       -3.38281
C          1.76621       -7.06654       -1.15942
O          2.08326       -1.93607       -4.51439
C          1.16244       -1.70471       -5.58210
O          0.10206        1.88348       -1.22948
C         -1.21664        1.45195       -1.52872
H          0.04011       -0.56182        0.10531
H          0.94328        0.66103        0.97849
H          1.80723       -0.67936        0.19465
H          2.04691        1.42434       -1.07130
H          1.19966        0.66716       -3.33156
H          2.23067       -0.46580       -2.42676
H          2.66748       -4.42228       -4.19416
H         -0.11567       -5.10581       -0.95770
H         -0.77344       -2.73775       -1.03370
H          2.88195       -8.51769       -4.27276
H          1.67768       -6.37354       -0.32119
H          0.91542       -7.75293       -1.15424
H          2.68929       -7.63366       -1.00635
H          0.78417       -2.64723       -5.99391
H          0.33157       -1.06768       -5.26248
H          1.70070       -1.18054       -6.37755
H         -1.29587        1.15370       -2.57722
H         -1.54199        0.64263       -0.87102
H         -1.88943        2.30097       -1.37603

--Link1--
%chk=JID_8905.chk
%mem=8GB
%nprocshared=4
# B3LYP/6-311++G(d,p) empiricaldispersion=gd3bj scf=xqc pop=npa geom=check

CID_113382797_JID_8905_Energie_neutraal

0 1

--Link1--
%chk=JID_8905.chk
%mem=8GB
%nprocshared=4
# B3LYP/6-311++G(d,p) empiricaldispersion=gd3bj scf=xqc pop=npa geom=check

CID_113382797_JID_8905_Energie_kation

1 2

--Link1--
%chk=JID_8905.chk
%mem=8GB
%nprocshared=4
# B3LYP/6-311++G(d,p) empiricaldispersion=gd3bj scf=xqc pop=npa geom=check

CID_113382797_JID_8905_Energie_anion

-1 2
