%chk=JID_9138.chk
%mem=8GB
%nprocshared=4
# opt freq B3LYP/6-31G(d) empiricaldispersion=gd3bj scf=xqc

CID_154267725_JID_9138_neutraal

0 1
C          1.34400       -0.22500        0.03600
C          0.62415        0.57754        0.91978
C         -0.72421        0.85030        0.67849
C         -1.35929        0.31798       -0.44883
C         -0.62890       -0.47922       -1.33824
C          0.71759       -0.75503       -1.09149
S         -3.09785        0.69529       -0.74361
O         -3.20054        1.12509       -2.17908
C         -3.79262       -0.90803       -0.65767
C         -4.47914       -1.46582       -1.71652
S         -4.99640       -3.04220       -1.30061
C         -4.30488       -2.84631        0.25536
N         -3.69583       -1.70020        0.48003
O         -4.35910       -3.84887        1.13327
C         -4.05990       -3.53576        2.49228
C         -2.64726       -3.96981        2.87243
C         -1.56375       -3.12828        2.21757
O         -1.74464       -1.76687        2.53972
O         -0.29724       -3.51345        2.70813
H          2.39483       -0.43296        0.22302
H          1.11312        0.99402        1.79741
H         -1.26858        1.48049        1.37799
H         -1.10067       -0.88123       -2.23212
H          1.28059       -1.37501       -1.78508
H         -4.68196       -1.03862       -2.68955
H         -4.25987       -2.48615        2.74187
H         -4.76405       -4.12086        3.09607
H         -2.54530       -3.90074        3.96285
H         -2.48938       -5.02237        2.60756
H         -1.55101       -3.25905        1.13046
H         -2.26335       -1.40051        1.79649
H          0.30971       -2.85035        2.33896

--Link1--
%chk=JID_9138.chk
%mem=8GB
%nprocshared=4
# B3LYP/6-311++G(d,p) empiricaldispersion=gd3bj scf=xqc pop=npa geom=check

CID_154267725_JID_9138_Energie_neutraal

0 1

--Link1--
%chk=JID_9138.chk
%mem=8GB
%nprocshared=4
# B3LYP/6-311++G(d,p) empiricaldispersion=gd3bj scf=xqc pop=npa geom=check

CID_154267725_JID_9138_Energie_kation

1 2

--Link1--
%chk=JID_9138.chk
%mem=8GB
%nprocshared=4
# B3LYP/6-311++G(d,p) empiricaldispersion=gd3bj scf=xqc pop=npa geom=check

CID_154267725_JID_9138_Energie_anion

-1 2
