%chk=JID_7438.chk
%mem=8GB
%nprocshared=4
# opt freq B3LYP/6-31G(d) empiricaldispersion=gd3bj scf=xqc

CID_19625581_JID_7438_neutraal

0 1
C          1.92800       -1.12000       -0.00800
C          0.48645       -0.81284       -0.18938
C         -0.63252       -1.63575       -0.26642
C         -1.70919       -0.73079       -0.43710
N         -1.31744        0.54095       -0.48691
N          0.01535        0.47010       -0.33965
C          0.78553        1.69250       -0.35460
C         -0.76487       -3.13322       -0.19615
C          0.14789       -3.84325       -1.19989
N         -0.51788       -3.50983        1.20085
C         -0.81640       -4.89902        1.52517
C         -2.26146       -5.22291        1.40012
C         -2.89993       -6.18470        0.64170
C         -4.26561       -6.03319        0.93097
N         -4.49227       -5.05463        1.80691
N         -3.26215       -4.57324        2.08228
C         -3.13458       -3.45988        2.99449
H          2.07203       -2.05577        0.53854
H          2.41851       -1.21436       -0.98194
H          2.43953       -0.33750        0.56114
H         -2.76397       -0.95766       -0.53001
H          1.15138        1.87787        0.65811
H          1.61760        1.57352       -1.05287
H          0.15070        2.52088       -0.68031
H         -1.80151       -3.37155       -0.46681
H          1.20575       -3.75383       -0.93236
H         -0.08838       -4.91034       -1.26486
H          0.02567       -3.42014       -2.20363
H          0.45812       -3.32284        1.41713
H         -0.51436       -5.07965        2.56427
H         -0.21150       -5.58384        0.92040
H         -2.44085       -6.89725       -0.02823
H         -5.10533       -6.59403        0.54175
H         -2.24187       -3.59606        3.60873
H         -3.06911       -2.54185        2.40589
H         -4.01395       -3.42660        3.64356

--Link1--
%chk=JID_7438.chk
%mem=8GB
%nprocshared=4
# B3LYP/6-311++G(d,p) empiricaldispersion=gd3bj scf=xqc pop=npa geom=check

CID_19625581_JID_7438_Energie_neutraal

0 1

--Link1--
%chk=JID_7438.chk
%mem=8GB
%nprocshared=4
# B3LYP/6-311++G(d,p) empiricaldispersion=gd3bj scf=xqc pop=npa geom=check

CID_19625581_JID_7438_Energie_kation

1 2

--Link1--
%chk=JID_7438.chk
%mem=8GB
%nprocshared=4
# B3LYP/6-311++G(d,p) empiricaldispersion=gd3bj scf=xqc pop=npa geom=check

CID_19625581_JID_7438_Energie_anion

-1 2
