%chk=JID_9075.chk
%mem=8GB
%nprocshared=4
# opt freq B3LYP/6-31G(d) empiricaldispersion=gd3bj scf=xqc

CID_64603817_JID_9075_neutraal

0 1
C          1.05558       -0.07914        0.02545
C          0.60103        0.58396       -1.27780
C          0.22258       -0.46603       -2.34747
C         -0.90141       -1.43427       -1.97327
O         -2.10556       -0.71258       -1.71239
C         -3.17642       -1.58644       -1.37660
N         -0.50029        1.49940       -0.94067
C         -0.68567        2.60285       -1.90117
C          0.36251        3.71370       -1.73354
C          0.19080        4.48287       -0.42401
N         -1.17886        5.03402       -0.34888
C         -2.21742        3.99184       -0.41308
C         -2.08571        3.21579       -1.72365
C         -1.31517        6.02396        0.64219
C         -2.12290        5.88673        1.77345
C         -2.19249        6.92664        2.69189
N         -1.52861        8.09309        2.56636
C         -0.76371        8.22156        1.46471
C         -0.62944        7.23601        0.49790
H          0.23864       -0.60716        0.52905
H          1.44382        0.67037        0.72492
H          1.85838       -0.79929       -0.16570
H          1.46140        1.14701       -1.65641
H         -0.06148        0.05544       -3.26956
H          1.11604       -1.05536       -2.58958
H         -1.07082       -2.12176       -2.81045
H         -0.62629       -2.02847       -1.09528
H         -3.38612       -2.27083       -2.20419
H         -2.93925       -2.15101       -0.46981
H         -4.06728       -0.98131       -1.18874
H         -1.35856        0.93040       -0.93738
H         -0.63034        2.21130       -2.92350
H          1.38150        3.31760       -1.79425
H          0.25998        4.41674       -2.57141
H          0.38481        3.83105        0.43763
H          0.94731        5.27631       -0.40552
H         -3.21492        4.44844       -0.39235
H         -2.13967        3.30795        0.44143
H         -2.27921        3.89759       -2.56275
H         -2.85797        2.43826       -1.77343
H         -2.68604        4.98358        1.97136
H         -2.80628        6.83858        3.58361
H         -0.24492        9.17039        1.36735
H         -0.01329        7.42294       -0.37458

--Link1--
%chk=JID_9075.chk
%mem=8GB
%nprocshared=4
# B3LYP/6-311++G(d,p) empiricaldispersion=gd3bj scf=xqc pop=npa geom=check

CID_64603817_JID_9075_Energie_neutraal

0 1

--Link1--
%chk=JID_9075.chk
%mem=8GB
%nprocshared=4
# B3LYP/6-311++G(d,p) empiricaldispersion=gd3bj scf=xqc pop=npa geom=check

CID_64603817_JID_9075_Energie_kation

1 2

--Link1--
%chk=JID_9075.chk
%mem=8GB
%nprocshared=4
# B3LYP/6-311++G(d,p) empiricaldispersion=gd3bj scf=xqc pop=npa geom=check

CID_64603817_JID_9075_Energie_anion

-1 2
