%chk=JID_6787.chk
%mem=8GB
%nprocshared=4
# opt freq B3LYP/6-31G(d) empiricaldispersion=gd3bj scf=xqc

CID_143612034_JID_6787_neutraal

0 1
C          1.06884        0.07216       -0.00731
C          0.73105        1.52244        0.17722
C          1.74569        2.47578        0.31756
C          1.41431        3.82803        0.45734
C          0.08219        4.25786        0.44692
C         -0.92329        3.30336        0.29248
C         -0.60381        1.94802        0.15362
N         -0.28170        5.61077        0.57968
C          0.68530        6.45822        0.73480
N          2.01833        6.13562        0.76251
C          2.46551        4.85226        0.61348
O          3.65690        4.57176        0.60043
S          0.40493        8.19716        0.92512
O          0.20345        8.42350        2.34325
O          1.49320        8.84307        0.21143
C         -1.11202        8.49622        0.06082
H          1.13505       -0.16358       -1.07386
H          0.30600       -0.56561        0.45149
H          2.02475       -0.17164        0.46807
H          2.79123        2.17289        0.32077
H         -1.96471        3.61509        0.27884
H         -1.40761        1.22471        0.02832
H          2.71570        6.86820        0.84615
H         -0.99459        8.18416       -0.97853
H         -1.91665        7.94181        0.54683
H         -1.32108        9.56717        0.10564

--Link1--
%chk=JID_6787.chk
%mem=8GB
%nprocshared=4
# B3LYP/6-311++G(d,p) empiricaldispersion=gd3bj scf=xqc pop=npa geom=check

CID_143612034_JID_6787_Energie_neutraal

0 1

--Link1--
%chk=JID_6787.chk
%mem=8GB
%nprocshared=4
# B3LYP/6-311++G(d,p) empiricaldispersion=gd3bj scf=xqc pop=npa geom=check

CID_143612034_JID_6787_Energie_kation

1 2

--Link1--
%chk=JID_6787.chk
%mem=8GB
%nprocshared=4
# B3LYP/6-311++G(d,p) empiricaldispersion=gd3bj scf=xqc pop=npa geom=check

CID_143612034_JID_6787_Energie_anion

-1 2
