%chk=JID_10732.chk
%mem=8GB
%nprocshared=4
# opt freq B3LYP/6-31G(d) empiricaldispersion=gd3bj scf=xqc

CID_133418860_JID_10732_neutraal

0 1
C          2.00100        0.05100        0.78000
C          0.56078       -0.31314        0.39857
C          0.01244       -1.42964        1.30301
C         -1.50873       -1.31075        1.22829
C         -1.81573        0.08753        0.68818
C         -0.47108        0.82517        0.59942
N         -0.27109        1.56135        1.83928
C          0.48691        2.69164        2.00668
N          1.00839        2.82273        3.19942
N          1.78023        3.93230        3.37246
C          2.01666        4.93363        2.43752
N          2.75929        5.90789        2.92795
C          3.02472        5.53766        4.22304
C          2.45574        4.32040        4.49099
N          2.48904        3.56801        5.67900
O          2.52265        4.21959        6.73055
O          2.55198        2.33758        5.58921
C          1.43473        4.77447        1.16435
C          0.68473        3.69508        0.91620
C          0.56329       -0.77349       -1.07503
H          2.09891        0.28974        1.84391
H          2.68113       -0.78513        0.58049
H          2.35404        0.91331        0.20413
H          0.35354       -2.42638        1.00306
H          0.33136       -1.28102        2.34234
H         -1.95747       -1.46402        2.21549
H         -1.92633       -2.07227        0.56009
H         -2.54880        0.60750        1.31489
H         -2.25837       -0.00333       -0.31127
H         -0.49253        1.50854       -0.25447
H         -0.24509        0.97891        2.67392
H          3.61831        6.16097        4.88046
H          1.59813        5.53954        0.41435
H          0.20154        3.54933       -0.03858
H          1.24288       -1.62118       -1.21965
H         -0.42708       -1.09124       -1.41640
H          0.89585        0.03641       -1.73422

--Link1--
%chk=JID_10732.chk
%mem=8GB
%nprocshared=4
# B3LYP/6-311++G(d,p) empiricaldispersion=gd3bj scf=xqc pop=npa geom=check

CID_133418860_JID_10732_Energie_neutraal

0 1

--Link1--
%chk=JID_10732.chk
%mem=8GB
%nprocshared=4
# B3LYP/6-311++G(d,p) empiricaldispersion=gd3bj scf=xqc pop=npa geom=check

CID_133418860_JID_10732_Energie_kation

1 2

--Link1--
%chk=JID_10732.chk
%mem=8GB
%nprocshared=4
# B3LYP/6-311++G(d,p) empiricaldispersion=gd3bj scf=xqc pop=npa geom=check

CID_133418860_JID_10732_Energie_anion

-1 2
