%chk=JID_9595.chk
%mem=8GB
%nprocshared=4
# opt freq B3LYP/6-31G(d) empiricaldispersion=gd3bj scf=xqc

CID_81341782_JID_9595_neutraal

0 1
C          1.00481        0.07472        0.06628
C          0.13282       -0.24370        1.27265
C          0.57604        0.47446        2.55086
N          0.35988        1.91782        2.45708
C          0.75300        2.62474        3.67787
C          2.24397        2.84655        3.78030
C          3.04571        1.98884        4.54325
C          4.42803        2.17933        4.61077
C          5.03676        3.24406        3.93347
C          4.23521        4.09462        3.15879
C          2.85408        3.89797        3.08293
C          6.53568        3.46187        3.96902
O          7.19527        2.84200        5.06988
C          7.17386        3.54863        6.21836
N          7.96477        3.08123        7.18187
N          7.75064        3.92456        8.20284
C          6.84123        4.90877        7.92114
C          6.44578        4.68511        6.61898
C          6.45031        5.93236        8.91374
H          0.92134        1.12562       -0.22601
H          0.69567       -0.53288       -0.79034
H          2.05704       -0.14429        0.27380
H         -0.91179        0.00023        1.04425
H          0.17077       -1.32500        1.45214
H         -0.00944        0.07309        3.38659
H          1.62953        0.24111        2.73947
H          0.89054        2.29783        1.67520
H          0.26109        3.60560        3.67600
H          0.37203        2.11663        4.57280
H          2.59974        1.15674        5.08369
H          5.02721        1.48846        5.20201
H          4.68207        4.91666        2.60345
H          2.25308        4.57015        2.47387
H          6.94936        3.00209        3.06313
H          6.78597        4.52987        3.91328
H          8.25532        3.76477        9.06842
H          5.72081        5.25739        6.05943
H          6.15818        5.46491        9.85961
H          7.28298        6.61569        9.10794
H          5.60203        6.52323        8.55379

--Link1--
%chk=JID_9595.chk
%mem=8GB
%nprocshared=4
# B3LYP/6-311++G(d,p) empiricaldispersion=gd3bj scf=xqc pop=npa geom=check

CID_81341782_JID_9595_Energie_neutraal

0 1

--Link1--
%chk=JID_9595.chk
%mem=8GB
%nprocshared=4
# B3LYP/6-311++G(d,p) empiricaldispersion=gd3bj scf=xqc pop=npa geom=check

CID_81341782_JID_9595_Energie_kation

1 2

--Link1--
%chk=JID_9595.chk
%mem=8GB
%nprocshared=4
# B3LYP/6-311++G(d,p) empiricaldispersion=gd3bj scf=xqc pop=npa geom=check

CID_81341782_JID_9595_Energie_anion

-1 2
