%chk=JID_6308.chk
%mem=8GB
%nprocshared=4
# opt freq B3LYP/6-31G(d) empiricaldispersion=gd3bj scf=xqc

CID_90712798_JID_6308_neutraal

0 1
C          0.33400        1.00600       -0.17300
C          0.92704       -0.00090        0.83079
C          0.72441       -1.09063       -0.26273
C         -0.42440       -0.18570       -0.79262
C          0.48375       -2.55240        0.14953
C         -0.90725       -3.17125        0.13291
C          0.08555       -3.56545       -0.91416
C          1.38429       -3.05380        1.21858
C          2.70642       -3.28661        1.15673
C          3.59902       -3.12295       -0.04314
C          4.39132       -1.83204       -0.05971
C          5.04689       -1.34944        1.08303
C          5.78000       -0.16131        1.03695
C          5.88283        0.55117       -0.15533
C          5.25773        0.07347       -1.30419
C          4.52225       -1.11262       -1.25816
H          1.07718        1.45551       -0.84166
H         -0.28706        1.79654        0.25489
H          1.96053        0.18990        1.13081
H          0.31455       -0.14259        1.72915
H          1.55924       -1.08761       -0.98102
H         -1.40396       -0.35197       -0.33150
H         -0.54273       -0.15618       -1.87884
H         -1.16542       -3.91015        0.88451
H         -1.75606       -2.57673       -0.18138
H         -0.07557       -3.20784       -1.92507
H          0.50117       -4.56597       -0.86794
H          0.90386       -3.22343        2.18237
H          3.19756       -3.64853        2.05793
H          4.30622       -3.96124       -0.07358
H          3.00414       -3.20320       -0.96078
H          4.98639       -1.88947        2.02448
H          6.27064        0.20729        1.93387
H          6.45254        1.47575       -0.18959
H          5.34168        0.62390       -2.23745
H          4.04172       -1.46897       -2.16679

--Link1--
%chk=JID_6308.chk
%mem=8GB
%nprocshared=4
# B3LYP/6-311++G(d,p) empiricaldispersion=gd3bj scf=xqc pop=npa geom=check

CID_90712798_JID_6308_Energie_neutraal

0 1

--Link1--
%chk=JID_6308.chk
%mem=8GB
%nprocshared=4
# B3LYP/6-311++G(d,p) empiricaldispersion=gd3bj scf=xqc pop=npa geom=check

CID_90712798_JID_6308_Energie_kation

1 2

--Link1--
%chk=JID_6308.chk
%mem=8GB
%nprocshared=4
# B3LYP/6-311++G(d,p) empiricaldispersion=gd3bj scf=xqc pop=npa geom=check

CID_90712798_JID_6308_Energie_anion

-1 2
