%chk=JID_10945.chk
%mem=8GB
%nprocshared=4
# opt freq B3LYP/6-31G(d) empiricaldispersion=gd3bj scf=xqc

CID_104399974_JID_10945_neutraal

0 1
C          0.94959       -0.08033       -0.03172
C          0.45036        1.08604        0.82479
C          0.87185        2.41283        0.15380
O          0.15698        3.00812       -0.65355
N          2.10346        2.94444        0.41862
C          3.22773        2.39880        1.16528
C          4.38811        2.02047        0.23905
O          4.95783        3.19900       -0.33781
C          4.70877        3.30335       -1.73402
N         -1.00573        1.03784        0.93601
C         -1.56791        0.48729        2.06398
N         -2.68530       -0.21933        1.87385
C         -3.29415       -0.73503        2.95629
C         -2.80924       -0.56546        4.22661
C         -1.67761        0.20133        4.31687
N         -1.02521        0.71533        3.26351
O         -1.18516        0.41133        5.59128
C         -0.47146        1.64074        5.69205
O         -4.41976       -1.44566        2.64319
C         -5.33749       -1.67813        3.70332
H          0.53575       -0.03270       -1.04558
H          0.65268       -1.03964        0.40542
H          2.03984       -0.07113       -0.12048
H          0.91265        1.04283        1.81480
H          2.26234        3.82612       -0.05631
H          3.54329        3.18571        1.85821
H          2.92301        1.52566        1.74383
H          5.17518        1.54564        0.83409
H          4.07036        1.30517       -0.52883
H          5.17500        2.46869       -2.26617
H          3.63476        3.32724       -1.93860
H          5.15240        4.23613       -2.09227
H         -1.50946        0.73694        0.11093
H         -3.26559       -0.97670        5.11252
H          0.46652        1.60741        5.12840
H         -1.09307        2.48458        5.37084
H         -0.22275        1.79473        6.74669
H         -4.94458       -2.42520        4.40062
H         -5.59568       -0.75037        4.22602
H         -6.25745       -2.08094        3.26880

--Link1--
%chk=JID_10945.chk
%mem=8GB
%nprocshared=4
# B3LYP/6-311++G(d,p) empiricaldispersion=gd3bj scf=xqc pop=npa geom=check

CID_104399974_JID_10945_Energie_neutraal

0 1

--Link1--
%chk=JID_10945.chk
%mem=8GB
%nprocshared=4
# B3LYP/6-311++G(d,p) empiricaldispersion=gd3bj scf=xqc pop=npa geom=check

CID_104399974_JID_10945_Energie_kation

1 2

--Link1--
%chk=JID_10945.chk
%mem=8GB
%nprocshared=4
# B3LYP/6-311++G(d,p) empiricaldispersion=gd3bj scf=xqc pop=npa geom=check

CID_104399974_JID_10945_Energie_anion

-1 2
