%chk=JID_3933.chk
%mem=8GB
%nprocshared=4
# opt freq B3LYP/6-31G(d) empiricaldispersion=gd3bj scf=xqc

CID_57944833_JID_3933_neutraal

0 1
C          1.03074        0.06411       -0.07032
C          0.79668       -0.53347       -1.44758
C          1.31335       -1.97079       -1.62182
C          0.65036       -3.08545       -0.76114
C         -0.88322       -2.98338       -0.87346
C          1.11397       -4.48216       -1.26893
C          2.62323       -4.72641       -1.42009
C          3.42357       -4.63661       -0.13230
O          1.08242       -2.85368        0.60521
C          0.60915       -3.59986        1.62917
O         -0.19265       -4.51814        1.56553
C          1.19041       -3.17180        2.92142
C          2.11514       -2.21550        3.07866
H          0.39712       -0.40679        0.68582
H          0.78546        1.13123       -0.07986
H          2.07749       -0.03750        0.23188
H         -0.26724       -0.47163       -1.70027
H          1.31679        0.09657       -2.18038
H          1.19549       -2.22827       -2.68280
H          2.39128       -1.94862       -1.41743
H         -1.19922       -2.89307       -1.91852
H         -1.38060       -3.87030       -0.46804
H         -1.27039       -2.12769       -0.31046
H          0.71715       -5.26818       -0.61622
H          0.66173       -4.65679       -2.25492
H          2.75585       -5.73580       -1.83009
H          3.04891       -4.04444       -2.16415
H          2.98930       -5.26761        0.64895
H          4.44969       -4.97686       -0.30668
H          3.48273       -3.60844        0.23400
H          0.80668       -3.71327        3.77978
H          2.48787       -1.96833        4.06737
H          2.52388       -1.66156        2.23973

--Link1--
%chk=JID_3933.chk
%mem=8GB
%nprocshared=4
# B3LYP/6-311++G(d,p) empiricaldispersion=gd3bj scf=xqc pop=npa geom=check

CID_57944833_JID_3933_Energie_neutraal

0 1

--Link1--
%chk=JID_3933.chk
%mem=8GB
%nprocshared=4
# B3LYP/6-311++G(d,p) empiricaldispersion=gd3bj scf=xqc pop=npa geom=check

CID_57944833_JID_3933_Energie_kation

1 2

--Link1--
%chk=JID_3933.chk
%mem=8GB
%nprocshared=4
# B3LYP/6-311++G(d,p) empiricaldispersion=gd3bj scf=xqc pop=npa geom=check

CID_57944833_JID_3933_Energie_anion

-1 2
