%chk=JID_1897.chk
%mem=8GB
%nprocshared=4
# opt freq B3LYP/6-31G(d) empiricaldispersion=gd3bj scf=xqc

CID_84650085_JID_1897_neutraal

0 1
C          1.02222        0.05321       -0.08170
C          0.59216       -0.57917        1.24014
C          0.91031        0.31994        2.47039
N         -0.00783        1.47622        2.56816
C         -0.59511        1.64795        3.91298
C          0.15633        2.67845        4.76725
C          0.04661        4.09903        4.13946
C          1.18065        3.59463        3.19972
C          1.67913        2.81262        4.45733
C          0.60594        2.72586        2.06923
N         -0.85000       -0.87559        1.16360
H          0.45654        0.96322       -0.30838
H          0.86967       -0.64512       -0.91254
H          2.08626        0.31123       -0.05825
H          1.13215       -1.52604        1.35793
H          0.81438       -0.32070        3.35686
H          1.96375        0.62465        2.44309
H         -1.63413        1.97886        3.78919
H         -0.66277        0.69350        4.44810
H         -0.11010        2.62866        5.82730
H          0.33921        4.91735        4.80917
H         -0.90582        4.36315        3.67106
H          1.84954        4.37950        2.83384
H          2.24357        1.89260        4.29811
H          2.23501        3.42495        5.17908
H          1.39035        2.51926        1.33215
H         -0.16089        3.29619        1.53055
H         -1.13139       -1.32237        2.03560
H         -1.32010        0.03629        1.20256

--Link1--
%chk=JID_1897.chk
%mem=8GB
%nprocshared=4
# B3LYP/6-311++G(d,p) empiricaldispersion=gd3bj scf=xqc pop=npa geom=check

CID_84650085_JID_1897_Energie_neutraal

0 1

--Link1--
%chk=JID_1897.chk
%mem=8GB
%nprocshared=4
# B3LYP/6-311++G(d,p) empiricaldispersion=gd3bj scf=xqc pop=npa geom=check

CID_84650085_JID_1897_Energie_kation

1 2

--Link1--
%chk=JID_1897.chk
%mem=8GB
%nprocshared=4
# B3LYP/6-311++G(d,p) empiricaldispersion=gd3bj scf=xqc pop=npa geom=check

CID_84650085_JID_1897_Energie_anion

-1 2
