%chk=JID_10514.chk
%mem=8GB
%nprocshared=4
# opt freq B3LYP/6-31G(d) empiricaldispersion=gd3bj scf=xqc

CID_103231941_JID_10514_neutraal

0 1
C          0.98668        0.06719        0.07285
C          1.41547        0.50408        1.45992
O          2.33701        1.58913        1.31586
C          3.53424        1.35833        1.95114
C          3.58739        1.11221        3.32568
C          4.81805        0.88740        3.93638
C          5.98648        0.93465        3.17794
C          5.92997        1.21335        1.80747
C          4.70400        1.41995        1.16721
N          4.60570        1.77171       -0.18949
C          5.40629        1.04937       -1.17681
C          4.91770       -0.31876       -1.52304
C          4.74587       -1.47850       -0.80083
C          4.24313       -2.45938       -1.70400
C          4.14478       -1.83000       -2.94104
O          4.55397       -0.52741       -2.81834
C          3.72071       -2.26491       -4.24946
O          3.67247       -1.61791       -5.28582
O          3.34537       -3.56565       -4.26243
C          3.90138       -3.86492       -1.36930
H          0.56295        0.90865       -0.48524
H          0.24075       -0.73058        0.12867
H          1.84476       -0.29463       -0.50116
H          0.54941        0.86931        2.02217
H          1.83314       -0.35981        1.99194
H          2.67942        1.10852        3.92055
H          4.86898        0.69518        5.00473
H          6.95021        0.78147        3.65711
H          6.86303        1.29790        1.25946
H          3.61954        1.79068       -0.45566
H          5.39740        1.65751       -2.09030
H          6.46008        0.99549       -0.88287
H          4.95131       -1.59909        0.25467
H          3.09684       -3.70278       -5.19981
H          4.06531       -4.06764       -0.30588
H          2.84877       -4.06952       -1.58928
H          4.52316       -4.56008       -1.94226

--Link1--
%chk=JID_10514.chk
%mem=8GB
%nprocshared=4
# B3LYP/6-311++G(d,p) empiricaldispersion=gd3bj scf=xqc pop=npa geom=check

CID_103231941_JID_10514_Energie_neutraal

0 1

--Link1--
%chk=JID_10514.chk
%mem=8GB
%nprocshared=4
# B3LYP/6-311++G(d,p) empiricaldispersion=gd3bj scf=xqc pop=npa geom=check

CID_103231941_JID_10514_Energie_kation

1 2

--Link1--
%chk=JID_10514.chk
%mem=8GB
%nprocshared=4
# B3LYP/6-311++G(d,p) empiricaldispersion=gd3bj scf=xqc pop=npa geom=check

CID_103231941_JID_10514_Energie_anion

-1 2
