%chk=JID_8052.chk
%mem=8GB
%nprocshared=4
# opt freq B3LYP/6-31G(d) empiricaldispersion=gd3bj scf=xqc

CID_114827763_JID_8052_neutraal

0 1
C          1.07236       -0.00587        0.06877
C          0.76656       -0.10306       -1.41867
C          1.07387       -1.49193       -2.00211
C          0.17751       -2.61866       -1.44377
C         -1.32288       -2.38026       -1.56063
N          1.00120       -1.46674       -3.45718
C          1.86477       -1.00798       -4.41930
O          1.45501       -1.15092       -5.58658
C          3.24262       -0.30073       -4.13093
C          3.86264        0.05978       -2.75866
C          5.26658       -0.28535       -3.31459
C          4.55874       -1.14173       -4.41958
C          4.40806       -2.62764       -4.04300
C          5.22399       -1.03597       -5.79451
O          6.14927       -1.00273       -2.42005
C          6.72528       -0.24891       -1.35639
C          8.05055        0.34151       -1.79438
N          3.31057        0.96743       -4.91722
H          0.42286       -0.66142        0.65595
H          0.91173        1.01908        0.41833
H          2.11344       -0.27333        0.27501
H         -0.27891        0.17176       -1.59979
H          1.35418        0.66141       -1.93832
H          2.09459       -1.78242       -1.75062
H          0.41878       -3.55407       -1.96530
H          0.42009       -2.78714       -0.38783
H         -1.62310       -2.17930       -2.59287
H         -1.86686       -3.26826       -1.22190
H         -1.64573       -1.54295       -0.93527
H          0.15307       -1.82024       -3.88549
H          3.74780        1.09669       -2.42190
H          3.61964       -0.57705       -1.90873
H          5.77856        0.59473       -3.72742
H          3.76732       -3.14877       -4.76265
H          5.38178       -3.13003       -4.04048
H          3.96920       -2.75863       -3.04867
H          5.45399       -0.00170       -6.06936
H          6.17122       -1.58673       -5.81063
H          4.57631       -1.45549       -6.57179
H          6.03805        0.53501       -1.02035
H          6.88427       -0.93352       -0.51738
H          7.91227        1.03652       -2.62852
H          8.52743        0.87795       -0.96916
H          8.72691       -0.44552       -2.14318
H          3.11663        0.78535       -5.90823
H          2.57694        1.62759       -4.65421

--Link1--
%chk=JID_8052.chk
%mem=8GB
%nprocshared=4
# B3LYP/6-311++G(d,p) empiricaldispersion=gd3bj scf=xqc pop=npa geom=check

CID_114827763_JID_8052_Energie_neutraal

0 1

--Link1--
%chk=JID_8052.chk
%mem=8GB
%nprocshared=4
# B3LYP/6-311++G(d,p) empiricaldispersion=gd3bj scf=xqc pop=npa geom=check

CID_114827763_JID_8052_Energie_kation

1 2

--Link1--
%chk=JID_8052.chk
%mem=8GB
%nprocshared=4
# B3LYP/6-311++G(d,p) empiricaldispersion=gd3bj scf=xqc pop=npa geom=check

CID_114827763_JID_8052_Energie_anion

-1 2
