%chk=JID_10496.chk
%mem=8GB
%nprocshared=4
# opt freq B3LYP/6-31G(d) empiricaldispersion=gd3bj scf=xqc

CID_17168007_JID_10496_neutraal

0 1
C          1.05280        0.06853       -0.05016
C          0.48986        0.73736        1.19690
C          0.85960        2.23161        1.29805
C          0.24412        3.08886        0.20418
C          1.06362        3.94137       -0.55405
C          0.52190        4.74755       -1.55718
C         -0.84673        4.71878       -1.81239
C         -1.67542        3.88784       -1.06236
C         -1.13573        3.08095       -0.05828
N          0.46049        2.76038        2.59767
C          1.19070        2.84195        3.74663
O          0.60419        3.09105        4.80206
C          2.69867        2.66695        3.70175
C          3.15644        1.22928        3.67012
C          2.69386        0.30715        4.61800
C          3.12540       -1.02098        4.58680
C          4.04540       -1.44659        3.62298
C          4.51312       -0.52689        2.67874
C          4.08230        0.80150        2.70917
C          4.48160       -2.88047        3.56828
H          0.62844        0.49726       -0.96291
H          0.81614       -1.00026       -0.04199
H          2.14162        0.17242       -0.09313
H         -0.59706        0.59575        1.22422
H          0.87773        0.20429        2.07263
H          1.94807        2.30430        1.21739
H          2.13448        3.98646       -0.36775
H          1.16845        5.40128       -2.13701
H         -1.26840        5.34799       -2.59182
H         -2.74491        3.87044       -1.25636
H         -1.80688        2.44914        0.51856
H         -0.52913        2.90492        2.75232
H          3.09336        3.23323        2.85025
H          3.12184        3.14610        4.59392
H          1.98736        0.61488        5.38787
H          2.73984       -1.72022        5.32561
H          5.22223       -0.83858        1.91502
H          4.47441        1.49756        1.97107
H          4.46642       -3.33264        4.56552
H          3.81564       -3.44908        2.91197
H          5.50628       -2.96229        3.19068

--Link1--
%chk=JID_10496.chk
%mem=8GB
%nprocshared=4
# B3LYP/6-311++G(d,p) empiricaldispersion=gd3bj scf=xqc pop=npa geom=check

CID_17168007_JID_10496_Energie_neutraal

0 1

--Link1--
%chk=JID_10496.chk
%mem=8GB
%nprocshared=4
# B3LYP/6-311++G(d,p) empiricaldispersion=gd3bj scf=xqc pop=npa geom=check

CID_17168007_JID_10496_Energie_kation

1 2

--Link1--
%chk=JID_10496.chk
%mem=8GB
%nprocshared=4
# B3LYP/6-311++G(d,p) empiricaldispersion=gd3bj scf=xqc pop=npa geom=check

CID_17168007_JID_10496_Energie_anion

-1 2
