%chk=JID_9918.chk
%mem=8GB
%nprocshared=4
# opt freq B3LYP/6-31G(d) empiricaldispersion=gd3bj scf=xqc

CID_61833029_JID_9918_neutraal

0 1
C          0.99363        0.09264        0.03711
C         -0.31023        0.09264        0.03711
C         -1.83023        0.09264        0.03711
N         -2.30122       -0.50143       -1.19082
C         -2.79723       -1.75734       -1.38146
O         -3.03923       -2.13306       -2.53064
C         -3.11221       -2.64169       -0.17171
O         -2.03481       -2.89609        0.71241
C         -1.13068       -3.86085        0.36842
C         -1.04729       -4.51945       -0.85801
C         -0.05795       -5.49505       -1.08740
C          0.83615       -5.84053       -0.05717
C          0.76076       -5.15225        1.16287
C         -0.21293       -4.17455        1.37025
C          1.91686       -6.88267       -0.26301
C          1.69094       -7.75044       -1.50266
C          1.30815       -6.89357       -2.69932
C         -0.01633       -6.18226       -2.43227
O          1.99677       -7.75648        0.86274
H          2.05919        0.08055        0.03503
H         -2.21701       -0.42218        0.91803
H         -2.18718        1.12719        0.05521
H         -2.08471       -0.01763       -2.05274
H         -3.88658       -2.12047        0.40434
H         -3.58146       -3.57530       -0.50688
H         -1.73156       -4.29143       -1.67031
H          1.46686       -5.37571        1.96095
H         -0.25672       -3.65600        2.32482
H          2.87937       -6.36530       -0.35456
H          0.90729       -8.49563       -1.30989
H          2.60040       -8.32446       -1.71753
H          2.09827       -6.15752       -2.89452
H          1.21774       -7.51523       -3.59702
H         -0.18750       -5.45008       -3.23051
H         -0.83597       -6.91072       -2.46812
H          1.08704       -7.88981        1.18145

--Link1--
%chk=JID_9918.chk
%mem=8GB
%nprocshared=4
# B3LYP/6-311++G(d,p) empiricaldispersion=gd3bj scf=xqc pop=npa geom=check

CID_61833029_JID_9918_Energie_neutraal

0 1

--Link1--
%chk=JID_9918.chk
%mem=8GB
%nprocshared=4
# B3LYP/6-311++G(d,p) empiricaldispersion=gd3bj scf=xqc pop=npa geom=check

CID_61833029_JID_9918_Energie_kation

1 2

--Link1--
%chk=JID_9918.chk
%mem=8GB
%nprocshared=4
# B3LYP/6-311++G(d,p) empiricaldispersion=gd3bj scf=xqc pop=npa geom=check

CID_61833029_JID_9918_Energie_anion

-1 2
