%chk=JID_4413.chk
%mem=8GB
%nprocshared=4
# opt freq B3LYP/6-31G(d) empiricaldispersion=gd3bj scf=xqc

CID_82401889_JID_4413_neutraal

0 1
C         -1.10600       -0.72000       -0.20700
C          0.30047       -1.14312        0.15620
O          1.14030        0.00582       -0.00649
C          0.29355        1.15475       -0.20721
C         -1.11480        0.74175        0.19858
C         -2.22192        1.53824       -0.40178
N         -1.99717        2.73492       -0.98409
N         -3.21397        3.16060       -1.40156
C         -4.17823        2.27790       -1.07989
C         -3.58844        1.23603       -0.43327
C         -4.56956        0.21172       -0.03101
C         -5.94449        0.96686       -0.27618
C         -5.63319        2.18145       -1.24906
N         -7.00438        0.08164       -0.75931
H         -1.25942       -0.82499       -1.28883
H         -1.86581       -1.32387        0.29820
H          0.36134       -1.45532        1.20422
H          0.66735       -1.96019       -0.47139
H          0.36687        1.42707       -1.26646
H          0.67364        1.99005        0.38926
H         -1.19621        0.79985        1.29287
H         -3.27931        4.05137       -1.88371
H         -4.47084       -0.08788        1.01636
H         -4.48007       -0.67326       -0.67044
H         -6.26645        1.38628        0.68710
H         -5.88802        1.93957       -2.28620
H         -6.17146        3.08090       -0.93843
H         -7.84275        0.62781       -0.95443
H         -6.72374       -0.32889       -1.65017

--Link1--
%chk=JID_4413.chk
%mem=8GB
%nprocshared=4
# B3LYP/6-311++G(d,p) empiricaldispersion=gd3bj scf=xqc pop=npa geom=check

CID_82401889_JID_4413_Energie_neutraal

0 1

--Link1--
%chk=JID_4413.chk
%mem=8GB
%nprocshared=4
# B3LYP/6-311++G(d,p) empiricaldispersion=gd3bj scf=xqc pop=npa geom=check

CID_82401889_JID_4413_Energie_kation

1 2

--Link1--
%chk=JID_4413.chk
%mem=8GB
%nprocshared=4
# B3LYP/6-311++G(d,p) empiricaldispersion=gd3bj scf=xqc pop=npa geom=check

CID_82401889_JID_4413_Energie_anion

-1 2
