%chk=JID_8799.chk
%mem=8GB
%nprocshared=4
# opt freq B3LYP/6-31G(d) empiricaldispersion=gd3bj scf=xqc

CID_127810133_JID_8799_neutraal

0 1
C          1.38100        0.73900       -0.34000
C          0.21319        1.70756       -0.41274
S         -1.21341        0.69683       -0.89825
C         -0.42373       -0.89667       -0.52896
C          0.83295       -0.55016        0.27042
N          1.81553       -1.62860        0.23015
C          2.95155       -1.70800        0.96199
O          3.95459       -2.19406        0.43819
N          3.03955       -1.13298        2.18213
C          2.12680       -1.12129        3.25474
C          0.99738       -1.91968        3.36565
C          0.17467       -1.84383        4.47090
C          0.42710       -0.98794        5.52242
C          1.57142       -0.19521        5.45165
C          2.42029       -0.27088        4.33294
O         -0.87577       -2.70703        4.40851
C         -0.61052       -3.36621        3.15718
O          0.56713       -2.87462        2.49418
H          1.78670        0.55137       -1.34327
H          2.19773        1.15784        0.25819
H          0.01123        2.15344        0.56621
H          0.39132        2.50936       -1.13419
H         -0.18075       -1.39147       -1.47549
H         -1.09732       -1.54935        0.03428
H          0.55069       -0.34451        1.30511
H          1.97255       -2.05142       -0.67645
H          4.00012       -0.93614        2.43368
H         -0.23509       -0.94696        6.38014
H          1.81139        0.48414        6.26648
H          3.30338        0.36429        4.30775
H         -0.48735       -4.43920        3.34385
H         -1.47183       -3.22234        2.49476

--Link1--
%chk=JID_8799.chk
%mem=8GB
%nprocshared=4
# B3LYP/6-311++G(d,p) empiricaldispersion=gd3bj scf=xqc pop=npa geom=check

CID_127810133_JID_8799_Energie_neutraal

0 1

--Link1--
%chk=JID_8799.chk
%mem=8GB
%nprocshared=4
# B3LYP/6-311++G(d,p) empiricaldispersion=gd3bj scf=xqc pop=npa geom=check

CID_127810133_JID_8799_Energie_kation

1 2

--Link1--
%chk=JID_8799.chk
%mem=8GB
%nprocshared=4
# B3LYP/6-311++G(d,p) empiricaldispersion=gd3bj scf=xqc pop=npa geom=check

CID_127810133_JID_8799_Energie_anion

-1 2
