%chk=JID_8630.chk
%mem=8GB
%nprocshared=4
# opt freq B3LYP/6-31G(d) empiricaldispersion=gd3bj scf=xqc

CID_103866883_JID_8630_neutraal

0 1
C          3.06900        0.39100        0.00800
C          1.58434        0.15718       -0.03699
C          0.73495        1.22114       -0.37724
C         -0.65888        1.06422       -0.42789
C         -1.22034       -0.19055       -0.11785
C         -0.36738       -1.25241        0.23279
C          1.02700       -1.09524        0.27329
C          1.89152       -2.26883        0.64509
C         -2.71920       -0.41733       -0.10492
N         -3.28864        0.16315        1.09865
C         -4.52305        0.71126        1.13367
C         -4.87957        1.68670        2.02860
N         -6.17087        2.00610        1.73791
N         -6.69225        1.28698        0.72865
C         -5.69108        0.47102        0.36133
C         -5.92166       -0.51503       -0.72127
C         -6.97941        3.01148        2.38194
C         -1.51235        2.25581       -0.77193
H          3.32843        1.40308       -0.32053
H          3.44076        0.26832        1.03017
H          3.58656       -0.30893       -0.65561
H          1.16821        2.19420       -0.60465
H         -0.80123       -2.21898        0.48653
H          1.29008       -3.14934        0.89497
H          2.54218       -2.54010       -0.19236
H          2.50309       -2.03070        1.52106
H         -3.14653        0.00972       -1.01885
H         -2.94096       -1.49086       -0.12917
H         -2.58100        0.50995        1.74264
H         -4.33088        2.18199        2.81579
H         -6.99133       -0.68092       -0.88861
H         -5.48547       -0.16062       -1.66021
H         -5.47537       -1.48202       -0.46989
H         -7.24297        3.76837        1.63886
H         -7.87747        2.53188        2.77872
H         -6.41134        3.46997        3.19522
H         -2.05798        2.59947        0.11185
H         -0.90346        3.09198       -1.13245
H         -2.21932        2.01214       -1.57051

--Link1--
%chk=JID_8630.chk
%mem=8GB
%nprocshared=4
# B3LYP/6-311++G(d,p) empiricaldispersion=gd3bj scf=xqc pop=npa geom=check

CID_103866883_JID_8630_Energie_neutraal

0 1

--Link1--
%chk=JID_8630.chk
%mem=8GB
%nprocshared=4
# B3LYP/6-311++G(d,p) empiricaldispersion=gd3bj scf=xqc pop=npa geom=check

CID_103866883_JID_8630_Energie_kation

1 2

--Link1--
%chk=JID_8630.chk
%mem=8GB
%nprocshared=4
# B3LYP/6-311++G(d,p) empiricaldispersion=gd3bj scf=xqc pop=npa geom=check

CID_103866883_JID_8630_Energie_anion

-1 2
