%chk=JID_8748.chk
%mem=8GB
%nprocshared=4
# opt freq B3LYP/6-31G(d) empiricaldispersion=gd3bj scf=xqc

CID_12124317_JID_8748_neutraal

0 1
C          0.96085        0.01362       -0.09100
O          0.04014       -0.59576       -0.98775
C          0.53075       -0.98467       -2.20263
C         -0.43610       -1.38060       -3.12580
C         -0.07106       -1.78512       -4.41396
C          1.27446       -1.80839       -4.80464
C          2.24094       -1.43831       -3.86009
C          1.87329       -1.02479       -2.57137
C          1.65566       -2.23341       -6.16009
C          0.94718       -1.94657       -7.25972
C          1.69193       -2.51343       -8.38886
O          1.29781       -2.43739       -9.54212
C          2.98185       -3.14289       -7.95951
C          2.91472       -3.01818       -6.43791
C          2.89336       -4.39700       -5.79350
O          3.82208       -4.84316       -5.13073
O          1.74427       -5.07046       -6.07963
C          1.66764       -6.37320       -5.49954
H          0.40033        0.34831        0.78718
H          1.43152        0.89378       -0.54187
H          1.71249       -0.70643        0.24843
H         -1.48610       -1.37011       -2.84286
H         -0.85816       -2.09316       -5.09858
H          3.29967       -1.44308       -4.10795
H          2.66288       -0.74407       -1.88200
H          0.02913       -1.39694       -7.37193
H          3.81365       -2.55904       -8.36642
H          3.03808       -4.17511       -8.31654
H          3.80394       -2.48839       -6.07767
H          2.44500       -7.02096       -5.91623
H          1.75119       -6.31608       -4.40976
H          0.69140       -6.79776       -5.74956

--Link1--
%chk=JID_8748.chk
%mem=8GB
%nprocshared=4
# B3LYP/6-311++G(d,p) empiricaldispersion=gd3bj scf=xqc pop=npa geom=check

CID_12124317_JID_8748_Energie_neutraal

0 1

--Link1--
%chk=JID_8748.chk
%mem=8GB
%nprocshared=4
# B3LYP/6-311++G(d,p) empiricaldispersion=gd3bj scf=xqc pop=npa geom=check

CID_12124317_JID_8748_Energie_kation

1 2

--Link1--
%chk=JID_8748.chk
%mem=8GB
%nprocshared=4
# B3LYP/6-311++G(d,p) empiricaldispersion=gd3bj scf=xqc pop=npa geom=check

CID_12124317_JID_8748_Energie_anion

-1 2
