%chk=JID_5635.chk
%mem=8GB
%nprocshared=4
# opt freq B3LYP/6-31G(d) empiricaldispersion=gd3bj scf=xqc

CID_130595772_JID_5635_neutraal

0 1
C          1.04822       -0.04280        0.07644
C          0.40806        1.31292       -0.21779
C          1.32982        2.45769        0.22809
C          0.84191        3.81186       -0.22208
C         -0.02845        3.96352       -1.23600
C         -0.51471        2.79954       -2.01485
O         -1.29466        2.97909       -2.94751
C          0.05637        1.43649       -1.69950
C          1.39844        5.01562        0.51076
C          0.70298        5.35007        1.79574
N         -0.51003        5.86478        1.88696
C         -0.75397        6.02944        3.22292
C          0.32371        5.61547        3.96561
N          1.24635        5.18928        3.05029
C          2.55648        4.67880        3.37025
H          0.37175       -0.85883       -0.19865
H          1.27616       -0.14106        1.14301
H          1.98081       -0.17299       -0.48300
H         -0.52261        1.38112        0.36340
H          1.39547        2.43294        1.32203
H          2.34582        2.30780       -0.15848
H         -0.40099        4.93254       -1.55088
H          0.93725        1.28312       -2.33338
H         -0.69374        0.68177       -1.96257
H          2.47371        4.86931        0.66654
H          1.32871        5.90142       -0.13581
H         -1.69051        6.43963        3.57761
H          0.49998        5.59598        5.03177
H          2.69372        4.67741        4.45482
H          2.63695        3.65800        2.99063
H          3.30538        5.32585        2.90726

--Link1--
%chk=JID_5635.chk
%mem=8GB
%nprocshared=4
# B3LYP/6-311++G(d,p) empiricaldispersion=gd3bj scf=xqc pop=npa geom=check

CID_130595772_JID_5635_Energie_neutraal

0 1

--Link1--
%chk=JID_5635.chk
%mem=8GB
%nprocshared=4
# B3LYP/6-311++G(d,p) empiricaldispersion=gd3bj scf=xqc pop=npa geom=check

CID_130595772_JID_5635_Energie_kation

1 2

--Link1--
%chk=JID_5635.chk
%mem=8GB
%nprocshared=4
# B3LYP/6-311++G(d,p) empiricaldispersion=gd3bj scf=xqc pop=npa geom=check

CID_130595772_JID_5635_Energie_anion

-1 2
