%chk=JID_4989.chk
%mem=8GB
%nprocshared=4
# opt freq B3LYP/6-31G(d) empiricaldispersion=gd3bj scf=xqc

CID_66600776_JID_4989_neutraal

0 1
C          1.06506        0.07273        0.02184
C          0.60524       -0.50570       -1.30901
C          1.09971       -1.92809       -1.51321
C          0.31214       -3.01300       -1.06383
C          0.69783       -4.31111       -1.39740
C          1.88491       -4.55168       -2.08246
C          2.72835       -3.49761       -2.47252
C          2.36668       -2.17362       -2.12152
N          3.15496       -1.08590       -2.56200
C          3.99107       -3.83230       -3.26789
C          4.98577       -4.59682       -2.38436
C          3.71087       -4.61921       -4.56805
C          2.86913       -3.83395       -5.56694
N         -0.95925       -2.83209       -0.48772
H          0.69149       -0.51820        0.86470
H          0.69321        1.09590        0.13635
H          2.15719        0.10036        0.09367
H         -0.48866       -0.46721       -1.37085
H          0.93479        0.13787       -2.13286
H          0.06370       -5.15491       -1.13839
H          2.13632       -5.58107       -2.32611
H          3.00033       -0.23391       -2.03576
H          4.14565       -1.29565       -2.59470
H          4.50088       -2.91672       -3.58150
H          4.60079       -5.57854       -2.08785
H          5.92937       -4.75799       -2.91696
H          5.21030       -4.03493       -1.47073
H          4.66731       -4.86222       -5.04847
H          3.22095       -5.57685       -4.35855
H          3.33931       -2.87507       -5.80753
H          2.76466       -4.40138       -6.49728
H          1.86397       -3.63876       -5.18152
H         -1.04574       -1.97806        0.05159
H         -1.28169       -3.63865        0.03745

--Link1--
%chk=JID_4989.chk
%mem=8GB
%nprocshared=4
# B3LYP/6-311++G(d,p) empiricaldispersion=gd3bj scf=xqc pop=npa geom=check

CID_66600776_JID_4989_Energie_neutraal

0 1

--Link1--
%chk=JID_4989.chk
%mem=8GB
%nprocshared=4
# B3LYP/6-311++G(d,p) empiricaldispersion=gd3bj scf=xqc pop=npa geom=check

CID_66600776_JID_4989_Energie_kation

1 2

--Link1--
%chk=JID_4989.chk
%mem=8GB
%nprocshared=4
# B3LYP/6-311++G(d,p) empiricaldispersion=gd3bj scf=xqc pop=npa geom=check

CID_66600776_JID_4989_Energie_anion

-1 2
