%chk=JID_6882.chk
%mem=8GB
%nprocshared=4
# opt freq B3LYP/6-31G(d) empiricaldispersion=gd3bj scf=xqc

CID_64716199_JID_6882_neutraal

0 1
C          2.54100        1.06400        0.00800
C          1.19711        0.39937       -0.04133
C          0.03567        1.17717       -0.10004
C         -1.22559        0.57443       -0.16192
C         -1.31517       -0.82349       -0.17314
C         -0.16829       -1.62428       -0.08226
C          1.08444       -0.99631       -0.03600
C         -0.26754       -3.13480       -0.08164
C         -0.71330       -3.84057        1.23858
C         -2.18771       -3.48443        1.55161
C         -0.67268       -5.36464        0.99117
C          0.13237       -3.45603        2.49072
C          1.46496       -4.17652        2.75565
C          2.58803       -3.87233        1.78096
O          1.91890       -3.79044        4.05962
C         -2.45864        1.42218       -0.26890
H          2.68406        1.69202       -0.87722
H          2.62148        1.68388        0.90671
H          3.35287        0.32971        0.03269
H          0.11493        2.26265       -0.10829
H         -2.29379       -1.29107       -0.25811
H          1.98792       -1.59963       -0.01310
H         -0.96124       -3.41420       -0.88834
H          0.69463       -3.54359       -0.41058
H         -2.83026       -3.63520        0.67692
H         -2.58250       -4.11537        2.35709
H         -2.29295       -2.44632        1.88221
H          0.32301       -5.69942        0.68238
H         -0.95243       -5.92093        1.89295
H         -1.37031       -5.65312        0.19613
H          0.29424       -2.37100        2.52103
H         -0.48454       -3.64616        3.38252
H          1.30853       -5.25832        2.80291
H          2.80780       -2.80084        1.75882
H          3.51193       -4.36321        2.10816
H          2.36748       -4.22117        0.77137
H          2.01783       -2.82239        4.06354
H         -2.40559        2.26514        0.42810
H         -2.56237        1.80593       -1.28850
H         -3.35811        0.84947       -0.01979

--Link1--
%chk=JID_6882.chk
%mem=8GB
%nprocshared=4
# B3LYP/6-311++G(d,p) empiricaldispersion=gd3bj scf=xqc pop=npa geom=check

CID_64716199_JID_6882_Energie_neutraal

0 1

--Link1--
%chk=JID_6882.chk
%mem=8GB
%nprocshared=4
# B3LYP/6-311++G(d,p) empiricaldispersion=gd3bj scf=xqc pop=npa geom=check

CID_64716199_JID_6882_Energie_kation

1 2

--Link1--
%chk=JID_6882.chk
%mem=8GB
%nprocshared=4
# B3LYP/6-311++G(d,p) empiricaldispersion=gd3bj scf=xqc pop=npa geom=check

CID_64716199_JID_6882_Energie_anion

-1 2
