%chk=JID_4643.chk
%mem=8GB
%nprocshared=4
# opt freq B3LYP/6-31G(d) empiricaldispersion=gd3bj scf=xqc

CID_116680457_JID_4643_neutraal

0 1
C          1.06411        0.04256       -0.06386
C          0.58838        1.47259       -0.07814
C         -0.13929        1.98256       -1.09107
C         -0.69746        1.44639       -2.38298
N         -0.87875        2.85467       -2.77893
C         -0.75814        3.32453       -1.38737
C          0.99362        2.29764        1.12323
N          0.23386        1.87267        2.29599
C          0.58509        2.62102        3.50056
C          0.02226        3.99996        3.45285
C          0.72592        5.18409        3.34935
O         -0.11441        6.24917        3.33730
C         -1.37452        5.75827        3.44279
C         -1.34891        4.38624        3.52258
H          0.76826       -0.49837       -0.96840
H          0.64747       -0.49600        0.79311
H          2.15652        0.00735        0.00053
H         -0.01357        0.89073       -3.03227
H         -1.63436        0.88410       -2.30372
H         -0.10632        3.18512       -3.35561
H         -1.71930        3.52647       -0.90186
H         -0.12095        4.20731       -1.27435
H          2.06971        2.17091        1.29405
H          0.82603        3.36059        0.91671
H         -0.75899        1.99055        2.10184
H          0.16121        2.09893        4.36649
H          1.67111        2.63573        3.65115
H          1.77800        5.42289        3.27487
H         -2.16496        6.49587        3.44987
H         -2.21029        3.73964        3.61744

--Link1--
%chk=JID_4643.chk
%mem=8GB
%nprocshared=4
# B3LYP/6-311++G(d,p) empiricaldispersion=gd3bj scf=xqc pop=npa geom=check

CID_116680457_JID_4643_Energie_neutraal

0 1

--Link1--
%chk=JID_4643.chk
%mem=8GB
%nprocshared=4
# B3LYP/6-311++G(d,p) empiricaldispersion=gd3bj scf=xqc pop=npa geom=check

CID_116680457_JID_4643_Energie_kation

1 2

--Link1--
%chk=JID_4643.chk
%mem=8GB
%nprocshared=4
# B3LYP/6-311++G(d,p) empiricaldispersion=gd3bj scf=xqc pop=npa geom=check

CID_116680457_JID_4643_Energie_anion

-1 2
