%chk=JID_8348.chk
%mem=8GB
%nprocshared=4
# opt freq B3LYP/6-31G(d) empiricaldispersion=gd3bj scf=xqc

CID_147462622_JID_8348_neutraal

0 1
C          1.06631        0.04769       -0.05769
C          0.31656       -0.16306       -1.36733
C          0.79182       -1.41401       -2.12342
C          0.34601       -2.71885       -1.48855
N         -0.57507       -2.75782       -0.56877
N         -0.95853       -3.95382       -0.05877
C         -0.34414       -5.16839       -0.38574
C         -0.75055       -6.36105        0.22193
C         -0.16118       -7.57949       -0.13402
C          0.83363       -7.62114       -1.11127
C          1.23796       -6.44463       -1.73740
C          0.64029       -5.23549       -1.36935
C          1.02368       -3.97151       -1.99678
O          1.86705       -3.89797       -2.87818
C          0.36752       -1.29731       -3.57188
O          0.86655       -0.49709       -4.35579
O         -0.66925       -2.12484       -3.87502
C         -1.11294       -2.03533       -5.22966
H          0.91584       -0.78514        0.63505
H          0.71391        0.96019        0.43378
H          2.14104        0.15511       -0.23628
H         -0.76071       -0.21470       -1.16764
H          0.46705        0.72970       -1.98758
H          1.89025       -1.42910       -2.12987
H         -1.58388       -3.94747        0.74514
H         -1.53156       -6.35503        0.97826
H         -0.48360       -8.49873        0.35013
H          1.28853       -8.56955       -1.38719
H          2.00800       -6.46859       -2.50490
H         -1.49982       -1.03335       -5.43972
H         -0.30118       -2.29140       -5.91775
H         -1.92379       -2.75574       -5.36828

--Link1--
%chk=JID_8348.chk
%mem=8GB
%nprocshared=4
# B3LYP/6-311++G(d,p) empiricaldispersion=gd3bj scf=xqc pop=npa geom=check

CID_147462622_JID_8348_Energie_neutraal

0 1

--Link1--
%chk=JID_8348.chk
%mem=8GB
%nprocshared=4
# B3LYP/6-311++G(d,p) empiricaldispersion=gd3bj scf=xqc pop=npa geom=check

CID_147462622_JID_8348_Energie_kation

1 2

--Link1--
%chk=JID_8348.chk
%mem=8GB
%nprocshared=4
# B3LYP/6-311++G(d,p) empiricaldispersion=gd3bj scf=xqc pop=npa geom=check

CID_147462622_JID_8348_Energie_anion

-1 2
