%chk=JID_656.chk
%mem=8GB
%nprocshared=4
# opt freq B3LYP/6-31G(d) empiricaldispersion=gd3bj scf=xqc

CID_22323928_JID_656_neutraal

0 1
C          1.03863        0.08637       -0.03237
C          0.67979       -0.39715       -1.43409
C          0.77817       -1.93542       -1.62487
C         -0.15253       -2.60211       -0.59109
C          0.42898       -2.42741       -3.07788
C          0.74234       -1.39371       -4.19063
O          2.13486       -1.13641       -4.33090
C          1.11598       -3.77093       -3.48278
C          1.05404       -4.92570       -2.49400
O          0.52422       -4.24298       -4.70102
H          0.28719       -0.21174        0.70430
H          1.09068        1.18013       -0.01734
H          2.01243       -0.30287        0.28063
H         -0.33359       -0.05504       -1.67766
H          1.36165        0.11611       -2.11732
H          1.81160       -2.23255       -1.40427
H         -1.15923       -2.17157       -0.63896
H         -0.26064       -3.67608       -0.73182
H          0.22796       -2.46263        0.42588
H         -0.65900       -2.57974       -3.12303
H          0.38252       -1.75581       -5.15980
H          0.22560       -0.44465       -4.01825
H          2.50519       -0.90611       -3.46509
H          2.17444       -3.58669       -3.69921
H          0.01846       -5.20845       -2.27871
H          1.52354       -5.81602       -2.92899
H          1.57954       -4.69825       -1.56305
H         -0.39066       -4.50974       -4.50881

--Link1--
%chk=JID_656.chk
%mem=8GB
%nprocshared=4
# B3LYP/6-311++G(d,p) empiricaldispersion=gd3bj scf=xqc pop=npa geom=check

CID_22323928_JID_656_Energie_neutraal

0 1

--Link1--
%chk=JID_656.chk
%mem=8GB
%nprocshared=4
# B3LYP/6-311++G(d,p) empiricaldispersion=gd3bj scf=xqc pop=npa geom=check

CID_22323928_JID_656_Energie_kation

1 2

--Link1--
%chk=JID_656.chk
%mem=8GB
%nprocshared=4
# B3LYP/6-311++G(d,p) empiricaldispersion=gd3bj scf=xqc pop=npa geom=check

CID_22323928_JID_656_Energie_anion

-1 2
