%chk=JID_4561.chk
%mem=8GB
%nprocshared=4
# opt freq B3LYP/6-31G(d) empiricaldispersion=gd3bj scf=xqc

CID_129998063_JID_4561_neutraal

0 1
C          1.04676       -0.01111        0.08769
C          0.52294       -1.38210       -0.33295
C          1.44069       -2.54255        0.07217
O          0.51321       -3.62757        0.26002
C         -0.67618       -3.01466        0.76679
O         -0.67777       -1.62283        0.43006
C         -0.70915       -3.14466        2.28719
C         -1.88841       -3.69279        0.14258
C          2.51457       -3.02559       -0.90726
C          3.66222       -2.06076       -1.16005
C          4.53446       -1.90416        0.05193
O          5.46180       -2.62653        0.37286
O          4.16877       -0.86613        0.82518
C          0.13316       -1.36474       -1.81376
H          1.29494        0.00143        1.15507
H          0.27607        0.75605       -0.05286
H          1.93007        0.29138       -0.47873
H          1.89288       -2.35481        1.05381
H         -1.61032       -2.68331        2.70488
H         -0.66505       -4.19408        2.59671
H          0.14920       -2.63692        2.74129
H         -1.86206       -3.60883       -0.94903
H         -1.91210       -4.76142        0.38077
H         -2.82119       -3.22802        0.47871
H          2.92066       -3.97276       -0.52549
H          2.04959       -3.29331       -1.86401
H          4.30061       -2.45058       -1.96241
H          3.32078       -1.08253       -1.50741
H          4.80595       -0.88945        1.57119
H         -0.67074       -0.64121       -1.99253
H          0.97981       -1.09868       -2.45400
H         -0.25167       -2.33609       -2.14080

--Link1--
%chk=JID_4561.chk
%mem=8GB
%nprocshared=4
# B3LYP/6-311++G(d,p) empiricaldispersion=gd3bj scf=xqc pop=npa geom=check

CID_129998063_JID_4561_Energie_neutraal

0 1

--Link1--
%chk=JID_4561.chk
%mem=8GB
%nprocshared=4
# B3LYP/6-311++G(d,p) empiricaldispersion=gd3bj scf=xqc pop=npa geom=check

CID_129998063_JID_4561_Energie_kation

1 2

--Link1--
%chk=JID_4561.chk
%mem=8GB
%nprocshared=4
# B3LYP/6-311++G(d,p) empiricaldispersion=gd3bj scf=xqc pop=npa geom=check

CID_129998063_JID_4561_Energie_anion

-1 2
