%chk=JID_4299.chk
%mem=8GB
%nprocshared=4
# opt freq B3LYP/6-31G(d) empiricaldispersion=gd3bj scf=xqc

CID_64668287_JID_4299_neutraal

0 1
C          1.09621       -0.02678        0.00509
C          0.61459        1.20108        0.80853
C          1.39099        2.42237        0.29969
C          0.86392        3.35446       -0.76711
C          1.01734        3.84604        0.64848
C         -0.90340        1.26395        0.77951
N         -1.71712        2.30046        0.76129
C         -2.95195        1.70753        0.77186
N         -2.93633        0.37134        0.81191
O         -1.57479        0.06971        0.83070
C         -4.25085        2.49455        0.72920
C         -4.29971        3.85582        1.39450
C         -4.29552        3.76822       -0.09267
N          1.07297        1.03705        2.20519
H          0.78049        0.04749       -1.04279
H          0.69809       -0.96665        0.40598
H          2.18997       -0.11121        0.00713
H          2.45891        2.21610        0.25264
H          1.56375        3.72415       -1.50887
H         -0.14162        3.22393       -1.14995
H          0.11550        4.03963        1.21774
H          1.81995        4.54497        0.85713
H         -5.15052        1.89022        0.75652
H         -5.22144        4.14063        1.88797
H         -3.40531        4.22613        1.88377
H         -3.39838        4.07749       -0.61805
H         -5.21451        3.99067       -0.62217
H          2.08908        1.00166        2.23178
H          0.79761        1.86914        2.72735

--Link1--
%chk=JID_4299.chk
%mem=8GB
%nprocshared=4
# B3LYP/6-311++G(d,p) empiricaldispersion=gd3bj scf=xqc pop=npa geom=check

CID_64668287_JID_4299_Energie_neutraal

0 1

--Link1--
%chk=JID_4299.chk
%mem=8GB
%nprocshared=4
# B3LYP/6-311++G(d,p) empiricaldispersion=gd3bj scf=xqc pop=npa geom=check

CID_64668287_JID_4299_Energie_kation

1 2

--Link1--
%chk=JID_4299.chk
%mem=8GB
%nprocshared=4
# B3LYP/6-311++G(d,p) empiricaldispersion=gd3bj scf=xqc pop=npa geom=check

CID_64668287_JID_4299_Energie_anion

-1 2
