%chk=JID_5118.chk
%mem=8GB
%nprocshared=4
# opt freq B3LYP/6-31G(d) empiricaldispersion=gd3bj scf=xqc

CID_138471074_JID_5118_neutraal

0 1
C          0.95134       -0.04018       -0.07757
C          0.91952       -0.54639        1.35873
C          1.77096        0.32419        2.27857
O          1.18280        1.62318        2.33863
C          1.99118        2.65530        2.72024
C          1.50065        3.92557        2.41513
C          2.23243        5.08302        2.72250
C          3.46414        4.93625        3.36969
C          3.97296        3.66839        3.70274
C          3.21099        2.53104        3.38358
C          5.26362        3.49027        4.45597
O          6.22189        4.44612        4.00541
O          4.17154        6.07018        3.67001
C          1.65607        6.43480        2.39116
O          1.19386        6.46993        1.04196
H          0.53791        0.97029       -0.15501
H          0.35655       -0.69628       -0.72099
H          1.97514       -0.02393       -0.46483
H         -0.12016       -0.54935        1.70606
H          1.28694       -1.57795        1.38749
H          1.78386       -0.10791        3.28553
H          2.79317        0.35924        1.88200
H          0.53308        4.01512        1.92253
H          3.58129        1.55274        3.67555
H          5.09154        3.65017        5.52486
H          5.68751        2.49047        4.31476
H          6.52601        4.13180        3.13310
H          5.06850        5.79880        3.96137
H          0.81273        6.65349        3.05397
H          2.38972        7.23836        2.49916
H          1.86333        6.00597        0.51077

--Link1--
%chk=JID_5118.chk
%mem=8GB
%nprocshared=4
# B3LYP/6-311++G(d,p) empiricaldispersion=gd3bj scf=xqc pop=npa geom=check

CID_138471074_JID_5118_Energie_neutraal

0 1

--Link1--
%chk=JID_5118.chk
%mem=8GB
%nprocshared=4
# B3LYP/6-311++G(d,p) empiricaldispersion=gd3bj scf=xqc pop=npa geom=check

CID_138471074_JID_5118_Energie_kation

1 2

--Link1--
%chk=JID_5118.chk
%mem=8GB
%nprocshared=4
# B3LYP/6-311++G(d,p) empiricaldispersion=gd3bj scf=xqc pop=npa geom=check

CID_138471074_JID_5118_Energie_anion

-1 2
