%chk=JID_9804.chk
%mem=8GB
%nprocshared=4
# opt freq B3LYP/6-31G(d) empiricaldispersion=gd3bj scf=xqc

CID_114081437_JID_9804_neutraal

0 1
C          1.05556        0.02671       -0.07874
C          1.64862        0.98663       -1.09524
O          2.12060        0.23981       -2.22334
C          3.44923        0.49007       -2.46340
C          3.77456        1.61049       -3.23384
C          5.10888        1.89619       -3.50955
C          6.11058        1.05601       -3.02782
C          5.77893       -0.07620       -2.27544
C          4.44005       -0.38963       -1.98385
C          4.10804       -1.58326       -1.18486
C          4.62533       -1.75231        0.10897
C          4.23356       -2.83262        0.90582
C          3.31671       -3.77548        0.42486
C          2.82430       -3.63700       -0.87681
C          3.21973       -2.55618       -1.67022
C          2.85477       -4.90586        1.30627
C          3.94943       -5.90559        1.60937
O          4.42712       -6.01440        2.73993
C          4.43369       -6.76455        0.47036
H          0.33968       -0.65216       -0.55328
H          0.54722        0.57691        0.71847
H          1.83221       -0.59002        0.37898
H          0.86686        1.66332       -1.45764
H          2.42666        1.59846       -0.61981
H          2.98826        2.25547       -3.61516
H          5.36713        2.76939       -4.10280
H          7.15326        1.27530       -3.24402
H          6.57839       -0.72584       -1.92445
H          5.31007       -1.01525        0.52383
H          4.63226       -2.91796        1.91572
H          2.11008       -4.35014       -1.28201
H          2.79987       -2.45337       -2.66979
H          2.47824       -4.49532        2.25134
H          2.01405       -5.44579        0.85484
H          3.58149       -7.25207       -0.01000
H          4.97653       -6.15264       -0.25339
H          5.10355       -7.53835        0.85557

--Link1--
%chk=JID_9804.chk
%mem=8GB
%nprocshared=4
# B3LYP/6-311++G(d,p) empiricaldispersion=gd3bj scf=xqc pop=npa geom=check

CID_114081437_JID_9804_Energie_neutraal

0 1

--Link1--
%chk=JID_9804.chk
%mem=8GB
%nprocshared=4
# B3LYP/6-311++G(d,p) empiricaldispersion=gd3bj scf=xqc pop=npa geom=check

CID_114081437_JID_9804_Energie_kation

1 2

--Link1--
%chk=JID_9804.chk
%mem=8GB
%nprocshared=4
# B3LYP/6-311++G(d,p) empiricaldispersion=gd3bj scf=xqc pop=npa geom=check

CID_114081437_JID_9804_Energie_anion

-1 2
