%chk=JID_4078.chk
%mem=8GB
%nprocshared=4
# opt freq B3LYP/6-31G(d) empiricaldispersion=gd3bj scf=xqc

CID_83879396_JID_4078_neutraal

0 1
C          0.93410       -0.03904       -0.06428
C          0.75841       -1.53471        0.19938
C          1.45919       -2.00008        1.49933
C          0.89218       -1.45125        2.79091
C         -0.17920       -2.04180        3.47150
C         -0.71799       -1.46006        4.61867
C         -0.18642       -0.27088        5.13210
C          0.90545        0.31179        4.47966
C          1.43269       -0.26819        3.32149
C         -0.74335        0.34198        6.39387
O         -2.17143        0.33004        6.42339
C         -2.74465        1.36232        5.63090
O         -0.76343       -3.20583        3.05984
N         -0.66889       -1.86210        0.14628
H          0.40666        0.57460        0.67372
H          0.54475        0.22816       -1.05344
H          1.99376        0.23693       -0.04254
H          1.24047       -2.06732       -0.62986
H          1.46048       -3.09615        1.53645
H          2.52347       -1.73269        1.44074
H         -1.55799       -1.93947        5.11793
H          1.35081        1.22795        4.86159
H          2.26910        0.22235        2.82684
H         -0.39354       -0.25464        7.24395
H         -0.37740        1.36480        6.54480
H         -2.42867        2.34486        5.99450
H         -2.47560        1.24590        4.57708
H         -3.83252        1.29485        5.71813
H         -0.08383       -3.75461        2.63937
H         -0.81490       -2.84553        0.36824
H         -1.15704       -1.35781        0.89129

--Link1--
%chk=JID_4078.chk
%mem=8GB
%nprocshared=4
# B3LYP/6-311++G(d,p) empiricaldispersion=gd3bj scf=xqc pop=npa geom=check

CID_83879396_JID_4078_Energie_neutraal

0 1

--Link1--
%chk=JID_4078.chk
%mem=8GB
%nprocshared=4
# B3LYP/6-311++G(d,p) empiricaldispersion=gd3bj scf=xqc pop=npa geom=check

CID_83879396_JID_4078_Energie_kation

1 2

--Link1--
%chk=JID_4078.chk
%mem=8GB
%nprocshared=4
# B3LYP/6-311++G(d,p) empiricaldispersion=gd3bj scf=xqc pop=npa geom=check

CID_83879396_JID_4078_Energie_anion

-1 2
