%chk=JID_4313.chk
%mem=8GB
%nprocshared=4
# opt freq B3LYP/6-31G(d) empiricaldispersion=gd3bj scf=xqc

CID_117580299_JID_4313_neutraal

0 1
C          2.62500       -0.32100        0.00300
C          1.19426        0.08824       -0.13681
C          0.13116       -0.77231       -0.37703
S         -1.35773        0.06957       -0.51633
C         -0.61163        1.57380       -0.23006
C          0.74561        1.44734       -0.04843
C          0.15106       -2.27376       -0.53104
C         -0.14808       -3.00096        0.79266
N         -1.57580       -2.95671        1.12423
C         -1.88851       -3.50845        2.46592
C         -1.37253       -2.65370        3.63865
O         -1.75091       -1.28705        3.49347
C         -3.42415       -3.64696        2.55117
O         -3.89218       -4.43179        1.45166
H          3.01543       -0.66770       -0.95912
H          3.24585        0.51484        0.34137
H          2.72497       -1.13009        0.73369
H         -1.19947        2.48152       -0.21745
H          1.39415        2.29647        0.13360
H         -0.54986       -2.59313       -1.31294
H          1.14564       -2.58081       -0.87818
H          0.15001       -4.05037        0.68564
H          0.46122       -2.56070        1.58941
H         -1.92270       -1.99546        1.06646
H         -1.46353       -4.51793        2.53368
H         -1.78515       -3.01657        4.58596
H         -0.28195       -2.70068        3.72049
H         -1.21410       -0.91716        2.76979
H         -3.72325       -4.14966        3.47618
H         -3.92451       -2.67339        2.50827
H         -3.34374       -4.13669        0.69575

--Link1--
%chk=JID_4313.chk
%mem=8GB
%nprocshared=4
# B3LYP/6-311++G(d,p) empiricaldispersion=gd3bj scf=xqc pop=npa geom=check

CID_117580299_JID_4313_Energie_neutraal

0 1

--Link1--
%chk=JID_4313.chk
%mem=8GB
%nprocshared=4
# B3LYP/6-311++G(d,p) empiricaldispersion=gd3bj scf=xqc pop=npa geom=check

CID_117580299_JID_4313_Energie_kation

1 2

--Link1--
%chk=JID_4313.chk
%mem=8GB
%nprocshared=4
# B3LYP/6-311++G(d,p) empiricaldispersion=gd3bj scf=xqc pop=npa geom=check

CID_117580299_JID_4313_Energie_anion

-1 2
