%chk=JID_9521.chk
%mem=8GB
%nprocshared=4
# opt freq B3LYP/6-31G(d) empiricaldispersion=gd3bj scf=xqc

CID_18411437_JID_9521_neutraal

0 1
C          1.34400       -0.22500        0.03600
C          0.85142        1.00222        0.47478
C         -0.52022        1.26656        0.42320
C         -1.41286        0.31021       -0.07832
C         -0.90624       -0.92684       -0.49904
C          0.46506       -1.19124       -0.44770
C         -2.86475        0.53551       -0.12872
C         -3.43745        1.72206       -0.39086
C         -4.92589        1.94060       -0.47429
C         -5.42208        2.91865        0.54394
N         -5.21437        4.22969        0.38858
S         -5.92925        4.97714        1.69549
C         -6.47835        3.49270        2.39370
N         -6.13515        2.46563        1.65145
N         -7.20085        3.34646        3.53156
C         -7.00760        4.27458        4.65128
C         -8.01363        3.99217        5.77333
O         -7.88935        4.42303        6.91481
N         -9.10175        3.24339        5.41702
H          2.41050       -0.42978        0.07685
H          1.53320        1.75468        0.86243
H         -0.88197        2.22456        0.78841
H         -1.57507       -1.69451       -0.88140
H          0.84508       -2.15187       -0.78520
H         -3.48428       -0.34263        0.04080
H         -2.82577        2.59953       -0.59102
H         -5.17039        2.30763       -1.47869
H         -5.46388        0.99232       -0.35295
H         -7.22723        2.37547        3.83882
H         -5.99934        4.15656        5.06291
H         -7.16455        5.31312        4.34113
H         -9.30656        3.09725        4.43483
H         -9.84052        3.12596        6.09744

--Link1--
%chk=JID_9521.chk
%mem=8GB
%nprocshared=4
# B3LYP/6-311++G(d,p) empiricaldispersion=gd3bj scf=xqc pop=npa geom=check

CID_18411437_JID_9521_Energie_neutraal

0 1

--Link1--
%chk=JID_9521.chk
%mem=8GB
%nprocshared=4
# B3LYP/6-311++G(d,p) empiricaldispersion=gd3bj scf=xqc pop=npa geom=check

CID_18411437_JID_9521_Energie_kation

1 2

--Link1--
%chk=JID_9521.chk
%mem=8GB
%nprocshared=4
# B3LYP/6-311++G(d,p) empiricaldispersion=gd3bj scf=xqc pop=npa geom=check

CID_18411437_JID_9521_Energie_anion

-1 2
