%chk=JID_10650.chk
%mem=8GB
%nprocshared=4
# opt freq B3LYP/6-31G(d) empiricaldispersion=gd3bj scf=xqc

CID_109983638_JID_10650_neutraal

0 1
C          1.09135        0.00077       -0.04068
C          0.19131        0.05885        1.18747
C          0.50281        1.23539        2.11536
C         -0.06978        2.55102        1.68374
C         -0.55498        3.53856        2.52196
S         -1.08206        4.88409        1.60311
C         -0.60509        4.08182        0.17513
N         -0.12381        2.87298        0.33775
N         -0.78411        4.61743       -1.07875
C         -1.35831        5.81687       -1.36253
O         -2.26951        5.85992       -2.19013
N         -0.82508        6.95430       -0.78097
C         -1.49338        8.22269       -1.06813
C         -1.14214        9.31600       -0.03913
N          0.28335        9.47310        0.29209
C          0.94656        8.17466        0.47871
C          0.61757        7.08727       -0.55760
C          1.02686       10.44881       -0.51076
C          1.01551       10.34364       -2.04379
O         -0.22651       10.76465       -2.59858
H          0.93120        0.84903       -0.71037
H          0.88538       -0.91144       -0.61024
H          2.14730       -0.01538        0.24765
H         -0.85971        0.07680        0.87605
H          0.34086       -0.87054        1.75094
H          0.09559        0.99633        3.10662
H          1.58681        1.34303        2.24177
H         -0.62366        3.53335        3.60030
H         -0.94397        3.89485       -1.76598
H         -1.21162        8.51692       -2.08355
H         -2.57877        8.06643       -1.06748
H         -1.64713        9.04839        0.89917
H         -1.58623       10.27317       -0.33673
H          0.63092        7.80090        1.46176
H          2.03400        8.29498        0.55344
H          1.06253        6.14052       -0.24150
H          1.07278        7.32186       -1.52579
H          0.64085       11.43998       -0.23919
H          2.07204       10.44704       -0.17631
H          1.79241       10.99538       -2.45810
H          1.22925        9.33046       -2.38884
H         -0.39478       11.67087       -2.28789

--Link1--
%chk=JID_10650.chk
%mem=8GB
%nprocshared=4
# B3LYP/6-311++G(d,p) empiricaldispersion=gd3bj scf=xqc pop=npa geom=check

CID_109983638_JID_10650_Energie_neutraal

0 1

--Link1--
%chk=JID_10650.chk
%mem=8GB
%nprocshared=4
# B3LYP/6-311++G(d,p) empiricaldispersion=gd3bj scf=xqc pop=npa geom=check

CID_109983638_JID_10650_Energie_kation

1 2

--Link1--
%chk=JID_10650.chk
%mem=8GB
%nprocshared=4
# B3LYP/6-311++G(d,p) empiricaldispersion=gd3bj scf=xqc pop=npa geom=check

CID_109983638_JID_10650_Energie_anion

-1 2
