%chk=JID_8139.chk
%mem=8GB
%nprocshared=4
# opt freq B3LYP/6-31G(d) empiricaldispersion=gd3bj scf=xqc

CID_113501935_JID_8139_neutraal

0 1
C          0.98895        0.07266        0.06781
O          0.18688        0.92333       -0.74193
C          0.69020        2.16361       -1.02664
C         -0.23469        3.04624       -1.60813
C          0.10004        4.35398       -1.97185
C          1.41018        4.77187       -1.69976
C          2.34644        3.89377       -1.13234
C          1.99436        2.58331       -0.79642
N          3.71391        4.36204       -0.88098
O          4.01717        5.49891       -1.26923
O          4.48897        3.59047       -0.29679
N         -0.78922        5.29562       -2.46326
C         -2.17886        5.10008       -2.89501
C         -3.11654        4.80337       -1.72037
C         -4.58201        4.79426       -2.13439
S         -4.91730        3.54757       -3.41121
C         -3.70237        4.08163       -4.64938
C         -2.29264        4.13203       -4.07553
H          0.40345       -0.82390        0.29308
H          1.24366        0.55260        1.01875
H          1.88920       -0.24368       -0.46884
H         -1.23618        2.66167       -1.76782
H          1.69702        5.79685       -1.92854
H          2.73248        1.91574       -0.36436
H         -0.32920        6.05195       -2.96644
H         -2.48760        6.08389       -3.27765
H         -2.87996        3.85126       -1.23700
H         -2.97756        5.56978       -0.94674
H         -5.20964        4.56951       -1.26597
H         -4.88676        5.77662       -2.51036
H         -4.00019        5.06173       -5.03706
H         -3.73574        3.37726       -5.48673
H         -1.60437        4.44952       -4.86969
H         -1.98107        3.11947       -3.79903

--Link1--
%chk=JID_8139.chk
%mem=8GB
%nprocshared=4
# B3LYP/6-311++G(d,p) empiricaldispersion=gd3bj scf=xqc pop=npa geom=check

CID_113501935_JID_8139_Energie_neutraal

0 1

--Link1--
%chk=JID_8139.chk
%mem=8GB
%nprocshared=4
# B3LYP/6-311++G(d,p) empiricaldispersion=gd3bj scf=xqc pop=npa geom=check

CID_113501935_JID_8139_Energie_kation

1 2

--Link1--
%chk=JID_8139.chk
%mem=8GB
%nprocshared=4
# B3LYP/6-311++G(d,p) empiricaldispersion=gd3bj scf=xqc pop=npa geom=check

CID_113501935_JID_8139_Energie_anion

-1 2
