%chk=JID_5504.chk
%mem=8GB
%nprocshared=4
# opt freq B3LYP/6-31G(d) empiricaldispersion=gd3bj scf=xqc

CID_58109101_JID_5504_neutraal

0 1
C          0.93689        0.07530        0.01864
C          0.47312        1.41549        0.59610
C          0.83342        2.54515       -0.37620
C         -1.04326        1.42933        0.91166
C         -1.53546        0.27143        1.78094
O         -1.48465        2.69916        1.45652
C         -1.04584        3.09631        2.68263
O         -0.27436        2.47325        3.40082
C         -1.66850        4.41453        3.07654
C         -1.22334        5.59026        2.24209
C          0.13902        5.86485        2.05298
C          0.54136        6.97260        1.30484
C         -0.41126        7.82606        0.75239
C         -1.76727        7.57323        0.94761
C         -2.17219        6.46247        1.68991
H          0.36555       -0.18913       -0.87751
H          0.82418       -0.73189        0.74895
H          1.99648        0.11606       -0.25638
H          1.04303        1.59260        1.51488
H          0.30645        2.42948       -1.32949
H          0.57561        3.52459        0.03676
H          1.90885        2.54973       -0.58422
H         -1.58053        1.34675       -0.04221
H         -0.93573        0.16145        2.68928
H         -2.57159        0.43904        2.09414
H         -1.49422       -0.67703        1.23663
H         -2.75754        4.28839        3.04066
H         -1.41835        4.61565        4.12545
H          0.89993        5.21809        2.48658
H          1.59966        7.17206        1.15754
H         -0.09684        8.69096        0.17435
H         -2.51085        8.24365        0.52442
H         -3.23571        6.28643        1.83605

--Link1--
%chk=JID_5504.chk
%mem=8GB
%nprocshared=4
# B3LYP/6-311++G(d,p) empiricaldispersion=gd3bj scf=xqc pop=npa geom=check

CID_58109101_JID_5504_Energie_neutraal

0 1

--Link1--
%chk=JID_5504.chk
%mem=8GB
%nprocshared=4
# B3LYP/6-311++G(d,p) empiricaldispersion=gd3bj scf=xqc pop=npa geom=check

CID_58109101_JID_5504_Energie_kation

1 2

--Link1--
%chk=JID_5504.chk
%mem=8GB
%nprocshared=4
# B3LYP/6-311++G(d,p) empiricaldispersion=gd3bj scf=xqc pop=npa geom=check

CID_58109101_JID_5504_Energie_anion

-1 2
