%chk=JID_10770.chk
%mem=8GB
%nprocshared=4
# opt freq B3LYP/6-31G(d) empiricaldispersion=gd3bj scf=xqc

CID_147854017_JID_10770_neutraal

0 1
C          2.49200        0.00400       -0.01400
C          1.00936        0.06018        0.24228
C          0.24450       -1.11062        0.45168
C         -1.14219       -0.97913        0.66939
C         -1.75837        0.27309        0.70103
C         -0.99023        1.42344        0.53962
C          0.38081        1.31564        0.30106
O         -3.10969        0.27162        0.97044
C         -3.86823        1.30444        0.47357
C         -3.95554        1.56222       -0.89423
C         -4.74431        2.62030       -1.33997
C         -5.46893        3.38665       -0.42178
C         -5.45641        3.07435        0.94138
C         -4.61365        2.05375        1.38650
N         -6.09465        3.91476        1.86287
C          0.88596       -2.49676        0.43215
O          0.09568       -3.49067        1.09298
C          0.37980       -3.57317        2.48295
O          1.21597       -2.90398       -0.90051
C          0.09059       -3.24526       -1.69614
H          3.01731       -0.34594        0.88003
H          2.71470       -0.65892       -0.85537
H          2.89178        0.99126       -0.26970
H         -1.75565       -1.86631        0.81725
H         -1.43852        2.41121        0.60092
H          0.95985        2.22714        0.16508
H         -3.39979        0.95891       -1.60614
H         -4.79008        2.85656       -2.39962
H         -6.05383        4.22850       -0.78328
H         -4.52636        1.83509        2.44655
H         -6.29894        3.46390        2.74967
H         -6.90428        4.39534        1.48302
H          1.84836       -2.43239        0.95396
H          1.40896       -3.90898        2.64308
H          0.21662       -2.61007        2.97595
H         -0.29592       -4.30900        2.92721
H         -0.47309       -4.07186       -1.25400
H         -0.56090       -2.38207       -1.85585
H          0.45709       -3.57317       -2.67320

--Link1--
%chk=JID_10770.chk
%mem=8GB
%nprocshared=4
# B3LYP/6-311++G(d,p) empiricaldispersion=gd3bj scf=xqc pop=npa geom=check

CID_147854017_JID_10770_Energie_neutraal

0 1

--Link1--
%chk=JID_10770.chk
%mem=8GB
%nprocshared=4
# B3LYP/6-311++G(d,p) empiricaldispersion=gd3bj scf=xqc pop=npa geom=check

CID_147854017_JID_10770_Energie_kation

1 2

--Link1--
%chk=JID_10770.chk
%mem=8GB
%nprocshared=4
# B3LYP/6-311++G(d,p) empiricaldispersion=gd3bj scf=xqc pop=npa geom=check

CID_147854017_JID_10770_Energie_anion

-1 2
