%chk=JID_9520.chk
%mem=8GB
%nprocshared=4
# opt freq B3LYP/6-31G(d) empiricaldispersion=gd3bj scf=xqc

CID_80056214_JID_9520_neutraal

0 1
C          2.18000       -0.00100        0.04500
N          1.10176        0.89689       -0.27325
C         -0.08491        0.54488       -0.88070
N         -0.79439        1.63914       -1.08685
N         -0.08762        2.70913       -0.59597
C          1.03701        2.25009       -0.10173
S          2.26475        3.20813        0.65066
C          2.28931        4.65432       -0.46835
C          2.93327        5.86011        0.22603
C          4.44973        5.75775        0.35345
C          5.11790        5.51242       -0.99594
C          4.52030        4.35315       -1.79440
C          2.98362        4.34338       -1.80186
S          5.30290        2.74721       -1.50267
O          4.30365        1.69900       -1.60492
O          6.47419        2.69278       -2.36171
C          5.92642        2.70425        0.16262
C         -0.46823       -0.83953       -1.27661
N         -0.99962       -1.60422       -0.15138
H          2.97033        0.50872        0.59718
H          1.79079       -0.81067        0.66678
H          2.58272       -0.40334       -0.88793
H          1.24627        4.92374       -0.67248
H          2.70061        6.75889       -0.36128
H          2.48712        6.02595        1.21457
H          4.71448        4.97439        1.06756
H          4.83627        6.69264        0.77703
H          6.19875        5.39303       -0.86644
H          4.99152        6.42723       -1.59148
H          4.80988        4.53125       -2.84204
H          2.58905        3.42779       -2.25648
H          2.67845        5.14562       -2.49072
H          6.64857        3.50712        0.30967
H          5.10782        2.76865        0.87414
H          6.43297        1.74446        0.29598
H         -1.23835       -0.78374       -2.05405
H          0.38536       -1.36884       -1.71304
H         -1.31657       -2.51260       -0.48340
H         -0.27669       -1.77690        0.54002

--Link1--
%chk=JID_9520.chk
%mem=8GB
%nprocshared=4
# B3LYP/6-311++G(d,p) empiricaldispersion=gd3bj scf=xqc pop=npa geom=check

CID_80056214_JID_9520_Energie_neutraal

0 1

--Link1--
%chk=JID_9520.chk
%mem=8GB
%nprocshared=4
# B3LYP/6-311++G(d,p) empiricaldispersion=gd3bj scf=xqc pop=npa geom=check

CID_80056214_JID_9520_Energie_kation

1 2

--Link1--
%chk=JID_9520.chk
%mem=8GB
%nprocshared=4
# B3LYP/6-311++G(d,p) empiricaldispersion=gd3bj scf=xqc pop=npa geom=check

CID_80056214_JID_9520_Energie_anion

-1 2
