%chk=JID_7770.chk
%mem=8GB
%nprocshared=4
# opt freq B3LYP/6-31G(d) empiricaldispersion=gd3bj scf=xqc

CID_54901459_JID_7770_neutraal

0 1
C          1.06048       -0.05367       -0.05884
C          0.18713       -0.46274        1.11907
C          0.36421        0.43097        2.34786
C         -0.05156        1.89271        2.17431
S         -1.77021        2.26020        2.67538
C         -2.72155        1.72354        1.22157
C         -2.20920        2.27419       -0.10000
O         -1.65271        1.51015       -0.89584
N         -2.40200        3.61079       -0.42324
C         -3.05466        4.61203        0.42478
C         -2.09098        5.64289        0.99090
C         -1.88768        4.05530       -1.72936
C         -0.39801        4.39678       -1.81930
O          0.13256        4.76768       -2.86202
O          0.24273        4.29409       -0.62254
C          1.62345        4.68525       -0.61006
C          2.51351        3.49043       -0.89060
H          0.79081        0.92709       -0.45348
H          0.95135       -0.77756       -0.87297
H          2.11661       -0.02891        0.22819
H         -0.85935       -0.49917        0.80902
H          0.45767       -1.48768        1.40191
H         -0.15665       -0.01933        3.20188
H          1.43078        0.41573        2.61012
H          0.56337        2.48954        2.85829
H          0.15531        2.28267        1.17779
H         -2.71389        0.63057        1.17887
H         -3.77215        2.00159        1.34897
H         -3.81702        5.11216       -0.18372
H         -3.58957        4.13454        1.24718
H         -1.63366        6.23805        0.19445
H         -2.62223        6.33035        1.65640
H         -1.28643        5.16946        1.56095
H         -2.07759        3.26591       -2.46590
H         -2.45159        4.94304       -2.03559
H          1.81740        5.49942       -1.31745
H          1.83689        5.07537        0.39056
H          2.26336        3.02690       -1.84992
H          3.56653        3.78566       -0.90415
H          2.37993        2.72643       -0.11891

--Link1--
%chk=JID_7770.chk
%mem=8GB
%nprocshared=4
# B3LYP/6-311++G(d,p) empiricaldispersion=gd3bj scf=xqc pop=npa geom=check

CID_54901459_JID_7770_Energie_neutraal

0 1

--Link1--
%chk=JID_7770.chk
%mem=8GB
%nprocshared=4
# B3LYP/6-311++G(d,p) empiricaldispersion=gd3bj scf=xqc pop=npa geom=check

CID_54901459_JID_7770_Energie_kation

1 2

--Link1--
%chk=JID_7770.chk
%mem=8GB
%nprocshared=4
# B3LYP/6-311++G(d,p) empiricaldispersion=gd3bj scf=xqc pop=npa geom=check

CID_54901459_JID_7770_Energie_anion

-1 2
