%chk=JID_2694.chk
%mem=8GB
%nprocshared=4
# opt freq B3LYP/6-31G(d) empiricaldispersion=gd3bj scf=xqc

CID_70423622_JID_2694_neutraal

0 1
C          0.94918        0.07511       -0.04214
C          1.60704       -1.14726        0.57063
O          1.57255       -1.06235        2.00388
C          2.57492       -0.34917        2.58324
O          3.51221        0.16835        1.98843
C          2.41939       -0.32553        4.08047
C          2.55050        1.06239        4.58019
N          1.55542        1.82185        5.00452
N          2.12353        2.98419        5.46337
N          3.44195        2.95001        5.33896
N          3.71131        1.77604        4.75800
S          5.28025        1.30511        4.43060
H         -0.07176        0.19231        0.33590
H          0.91472       -0.00869       -1.13203
H          1.49264        0.98818        0.22059
H          1.04818       -2.04603        0.29015
H          2.63237       -1.27781        0.20620
H          1.42996       -0.71152        4.35227
H          3.15963       -0.99835        4.52417
H          5.02308        0.35532        3.52066

--Link1--
%chk=JID_2694.chk
%mem=8GB
%nprocshared=4
# B3LYP/6-311++G(d,p) empiricaldispersion=gd3bj scf=xqc pop=npa geom=check

CID_70423622_JID_2694_Energie_neutraal

0 1

--Link1--
%chk=JID_2694.chk
%mem=8GB
%nprocshared=4
# B3LYP/6-311++G(d,p) empiricaldispersion=gd3bj scf=xqc pop=npa geom=check

CID_70423622_JID_2694_Energie_kation

1 2

--Link1--
%chk=JID_2694.chk
%mem=8GB
%nprocshared=4
# B3LYP/6-311++G(d,p) empiricaldispersion=gd3bj scf=xqc pop=npa geom=check

CID_70423622_JID_2694_Energie_anion

-1 2
