%chk=JID_8433.chk
%mem=8GB
%nprocshared=4
# opt freq B3LYP/6-31G(d) empiricaldispersion=gd3bj scf=xqc

CID_80466996_JID_8433_neutraal

0 1
C         -0.71700        1.22600        0.24100
C          0.76728        0.94708       -0.00246
O          1.11843       -0.36914        0.44155
C          0.38041       -1.36467       -0.29871
C         -1.13676       -1.17187       -0.09592
N         -1.56966        0.20427       -0.37641
C         -2.88693        0.38292       -0.77756
O         -3.62308       -0.58967       -0.98125
C         -3.46890        1.77573       -0.99643
C         -3.63453        2.60490        0.28944
C         -3.22794        4.00227       -0.07086
C         -3.94606        4.76897       -1.14965
C         -2.67593        4.01985       -1.45617
C         -2.70781        2.63223       -2.02577
C          0.84145       -2.73078        0.19877
C          0.29754       -3.82583       -0.66644
O          0.27131       -3.84056       -1.88523
O         -0.18409       -4.86039        0.04565
H         -0.92331        1.18739        1.31736
H         -0.95826        2.22655       -0.10974
H          1.02084        1.04986       -1.06421
H          1.37758        1.66193        0.55824
H          0.62978       -1.24717       -1.36162
H         -1.40752       -1.36600        0.94984
H         -1.68998       -1.88079       -0.72068
H         -4.47809        1.61711       -1.40573
H         -4.67879        2.58985        0.62242
H         -3.03573        2.22794        1.12244
H         -2.73474        4.54774        0.72069
H         -3.89912        5.85210       -1.11584
H         -4.88609        4.38404       -1.52865
H         -1.77851        4.57887       -1.67871
H         -1.69459        2.26773       -2.21975
H         -3.23230        2.63153       -2.98821
H          1.93516       -2.80134        0.19230
H          0.52867       -2.87713        1.23967
H         -0.50723       -5.49423       -0.62958

--Link1--
%chk=JID_8433.chk
%mem=8GB
%nprocshared=4
# B3LYP/6-311++G(d,p) empiricaldispersion=gd3bj scf=xqc pop=npa geom=check

CID_80466996_JID_8433_Energie_neutraal

0 1

--Link1--
%chk=JID_8433.chk
%mem=8GB
%nprocshared=4
# B3LYP/6-311++G(d,p) empiricaldispersion=gd3bj scf=xqc pop=npa geom=check

CID_80466996_JID_8433_Energie_kation

1 2

--Link1--
%chk=JID_8433.chk
%mem=8GB
%nprocshared=4
# B3LYP/6-311++G(d,p) empiricaldispersion=gd3bj scf=xqc pop=npa geom=check

CID_80466996_JID_8433_Energie_anion

-1 2
