%chk=JID_1810.chk
%mem=8GB
%nprocshared=4
# opt=(cartesian,calcfc) freq B3LYP/6-31G(d) empiricaldispersion=gd3bj scf=xqc

CID_101996513_JID_1810_neutraal

0 1
6	1.516568	 1.935451	 0.323186
7	0.985482	 0.858918	 -0.509478
6	2.023099	 -0.041932	 -0.994955
6	2.719137	 -0.817902	 0.047321
6	3.297992	 -1.411309	 0.925152
6	-0.263665	 0.289623	 -0.162303
6	-0.504056	 -1.035982	 -0.170373
6	-1.875565	 -1.648364	 -0.031879
6	-2.993616	 -0.616373	 -0.207651
6	-2.665238	 0.637253	 0.601858
6	-1.371823	 1.292249	 0.100977
1	2.422290	 2.327850	 -0.150981
1	1.780007	 1.604169	 1.342382
1	0.798998	 2.755971	 0.391772
1	1.569937	 -0.718613	 -1.727446
1	2.763006	 0.564457	 -1.533403
1	3.798831	 -1.944571	 1.700546
1	0.316545	 -1.735475	 -0.291499
1	-1.973458	 -2.131786	 0.953812
1	-1.991630	 -2.457674	 -0.766551
1	-3.957729	 -1.039346	 0.098518
1	-3.081698	 -0.348015	 -1.269450
1	-3.483533	 1.365572	 0.556225
1	-2.545908	 0.359383	 1.657924
1	-1.560811	 1.855990	 -0.824482
1	-1.050226	 2.033381	 0.840974

--Link1--
%chk=JID_1810.chk
%mem=8GB
%nprocshared=4
# B3LYP/6-311++G(d,p) empiricaldispersion=gd3bj scf=xqc pop=npa geom=check

CID_101996513_JID_1810_Energie_neutraal

0 1

--Link1--
%chk=JID_1810.chk
%mem=8GB
%nprocshared=4
# B3LYP/6-311++G(d,p) empiricaldispersion=gd3bj scf=xqc pop=npa geom=check

CID_101996513_JID_1810_Energie_kation

1 2

--Link1--
%chk=JID_1810.chk
%mem=8GB
%nprocshared=4
# B3LYP/6-311++G(d,p) empiricaldispersion=gd3bj scf=xqc pop=npa geom=check

CID_101996513_JID_1810_Energie_anion

-1 2
