%chk=JID_7713.chk
%mem=8GB
%nprocshared=4
# opt freq B3LYP/6-31G(d) empiricaldispersion=gd3bj scf=xqc

CID_117370946_JID_7713_neutraal

0 1
C          0.33400        1.00600       -0.17300
C          1.35119       -0.14546        0.08885
C          0.27926       -1.22973       -0.24330
S         -1.02019       -0.10049        0.38082
O          2.62267       -0.14107       -0.61852
C          2.60646       -0.27796       -1.98498
C          2.70134       -1.58211       -2.48503
C          2.73248       -1.80555       -3.85947
C          2.69306       -0.72505       -4.73544
C          2.63606        0.57963       -4.23606
C          2.60856        0.82714       -2.85246
C          2.56581        2.21254       -2.40180
C          3.29296        2.77891       -1.37324
N          2.93774        4.10218       -1.34418
N          2.01324        4.43913       -2.25979
C          1.80381        3.29461       -2.91411
N          4.20250        2.27898       -0.50934
H          0.20444        1.31256       -1.21307
H          0.48211        1.89473        0.44634
H          1.60644       -0.18343        1.16077
H          0.38632       -2.16055        0.32066
H          0.14534       -1.47384       -1.30099
H          2.75439       -2.42553       -1.80185
H          2.79820       -2.81928       -4.24641
H          2.72478       -0.89321       -5.80932
H          2.63886        1.40574       -4.94480
H          3.29046        4.82191       -0.72683
H          1.09463        3.28587       -3.73198
H          4.46348        2.75772        0.34730
H          4.27073        1.26249       -0.42585

--Link1--
%chk=JID_7713.chk
%mem=8GB
%nprocshared=4
# B3LYP/6-311++G(d,p) empiricaldispersion=gd3bj scf=xqc pop=npa geom=check

CID_117370946_JID_7713_Energie_neutraal

0 1

--Link1--
%chk=JID_7713.chk
%mem=8GB
%nprocshared=4
# B3LYP/6-311++G(d,p) empiricaldispersion=gd3bj scf=xqc pop=npa geom=check

CID_117370946_JID_7713_Energie_kation

1 2

--Link1--
%chk=JID_7713.chk
%mem=8GB
%nprocshared=4
# B3LYP/6-311++G(d,p) empiricaldispersion=gd3bj scf=xqc pop=npa geom=check

CID_117370946_JID_7713_Energie_anion

-1 2
