%chk=JID_6608.chk
%mem=8GB
%nprocshared=4
# opt freq B3LYP/6-31G(d) empiricaldispersion=gd3bj scf=xqc

CID_59264485_JID_6608_neutraal

0 1
C         -0.72000        1.26100        0.22400
C          0.70524        1.18464       -0.32125
N          1.36346       -0.05975        0.07403
C          0.62689       -1.22696       -0.40713
C         -0.79921       -1.24585        0.13890
C         -1.55512        0.04583       -0.21245
C         -2.95090        0.03387        0.43834
C         -3.84512        1.15914       -0.02675
C         -4.12242        2.24305        0.81585
C         -4.94504        3.28540        0.38058
C         -5.49368        3.26718       -0.90439
C         -5.23375        2.17711       -1.73959
C         -4.41127        1.13340       -1.30796
N         -6.33006        4.30788       -1.33113
N         -5.70009        5.19376       -1.94136
N         -5.13484        6.01056       -2.50259
H         -1.18279        2.18924       -0.12989
H         -0.68780        1.31762        1.32000
H          0.69914        1.27857       -1.41412
H          1.28321        2.02960        0.06881
H          2.30810       -0.07610       -0.30997
H          1.14762       -2.13367       -0.08038
H          0.61485       -1.24207       -1.50383
H         -0.76984       -1.37677        1.22876
H         -1.33156       -2.11270       -0.27066
H         -1.66713        0.08303       -1.30488
H         -3.45858       -0.91301        0.21040
H         -2.85572        0.06061        1.53178
H         -3.70102        2.28335        1.81809
H         -5.15995        4.11458        1.04976
H         -5.67623        2.13642       -2.73154
H         -4.22028        0.29634       -1.97600

--Link1--
%chk=JID_6608.chk
%mem=8GB
%nprocshared=4
# B3LYP/6-311++G(d,p) empiricaldispersion=gd3bj scf=xqc pop=npa geom=check

CID_59264485_JID_6608_Energie_neutraal

0 1

--Link1--
%chk=JID_6608.chk
%mem=8GB
%nprocshared=4
# B3LYP/6-311++G(d,p) empiricaldispersion=gd3bj scf=xqc pop=npa geom=check

CID_59264485_JID_6608_Energie_kation

1 2

--Link1--
%chk=JID_6608.chk
%mem=8GB
%nprocshared=4
# B3LYP/6-311++G(d,p) empiricaldispersion=gd3bj scf=xqc pop=npa geom=check

CID_59264485_JID_6608_Energie_anion

-1 2
