%chk=JID_9458.chk
%mem=8GB
%nprocshared=4
# opt freq B3LYP/6-31G(d) empiricaldispersion=gd3bj scf=xqc

CID_61146539_JID_9458_neutraal

0 1
C         -1.50500        0.02200       -0.20100
C         -1.07581        1.08782        0.79576
C          0.44263        1.12582        0.91656
N          0.95442       -0.20450        1.31272
C          0.60814       -1.29787        0.35219
C         -0.92860       -1.33550        0.18868
C          1.11850       -2.66384        0.87432
C          0.75325       -3.85868        0.00169
O          1.16301       -3.63282       -1.33930
C          2.32560       -0.07217        1.63657
C          2.66887        0.10449        2.98605
C          4.00029        0.26211        3.37713
C          5.00446        0.24289        2.40842
C          4.68512        0.09331        1.05725
C          3.34932       -0.06444        0.67709
S          6.69011        0.47410        2.88585
O          7.42993        1.02240        1.77294
O          6.74009        1.05425        4.20780
N          7.22366       -1.10833        3.05957
H         -2.59856       -0.03508       -0.23772
H         -1.16183        0.29348       -1.20672
H         -1.44843        2.06737        0.47641
H         -1.52066        0.87441        1.77567
H          0.88243        1.44079       -0.03947
H          0.70428        1.88187        1.66852
H          1.05057       -1.08451       -0.62944
H         -1.39304       -1.66206        1.12844
H         -1.21508       -2.06009       -0.58117
H          2.21251       -2.63775        0.93998
H          0.75093       -2.83868        1.89340
H          1.26238       -4.75468        0.37236
H         -0.32281       -4.05489        0.01570
H          0.98117       -4.45095       -1.83395
H          1.88269        0.11344        3.73772
H          4.23875        0.39815        4.42894
H          5.46247        0.10077        0.29699
H          3.11631       -0.17224       -0.37852
H          7.96454       -1.29948        2.38510
H          7.49099       -1.27809        4.02920

--Link1--
%chk=JID_9458.chk
%mem=8GB
%nprocshared=4
# B3LYP/6-311++G(d,p) empiricaldispersion=gd3bj scf=xqc pop=npa geom=check

CID_61146539_JID_9458_Energie_neutraal

0 1

--Link1--
%chk=JID_9458.chk
%mem=8GB
%nprocshared=4
# B3LYP/6-311++G(d,p) empiricaldispersion=gd3bj scf=xqc pop=npa geom=check

CID_61146539_JID_9458_Energie_kation

1 2

--Link1--
%chk=JID_9458.chk
%mem=8GB
%nprocshared=4
# B3LYP/6-311++G(d,p) empiricaldispersion=gd3bj scf=xqc pop=npa geom=check

CID_61146539_JID_9458_Energie_anion

-1 2
