%chk=JID_6303.chk
%mem=8GB
%nprocshared=4
# opt freq B3LYP/6-31G(d) empiricaldispersion=gd3bj scf=xqc

CID_70188766_JID_6303_neutraal

0 1
C          1.04701       -0.00295       -0.08821
C          0.60372        1.22752       -0.83150
C         -0.09183        1.23382       -1.98715
C         -0.55435        0.02305       -2.76605
C         -2.09806       -0.09071       -2.78862
C         -2.68560        0.88411       -3.84115
C         -2.67738        0.09397       -5.11939
C         -3.84509       -0.74997       -5.52842
C         -2.67531       -1.37970       -4.78709
C         -2.65746       -1.49220       -3.24048
C         -1.84088       -2.68338       -2.71033
C         -4.08789       -1.68017       -2.67718
C         -1.76903       -2.28058       -5.58390
C          1.00882        2.51866       -0.16137
O          1.80897        2.49753        0.77516
C          0.43122        3.82657       -0.64096
H          0.53569       -0.91368       -0.40659
H          0.83692        0.09810        0.98268
H          2.12389       -0.15378       -0.21585
H         -0.34878        2.17894       -2.45907
H         -0.15629        0.09889       -3.78549
H         -0.10432       -0.87405       -2.34384
H         -2.47857        0.16136       -1.78997
H         -3.70955        1.17050       -3.57576
H         -2.10592        1.80600       -3.94335
H         -1.99561        0.46928       -5.87029
H         -3.96378       -0.96529       -6.58640
H         -4.79679       -0.59748       -5.03620
H         -1.76133       -2.64684       -1.61757
H         -2.31982       -3.63363       -2.97462
H         -0.82584       -2.72419       -3.11478
H         -4.73422       -0.81660       -2.85973
H         -4.57201       -2.55555       -3.12485
H         -4.06398       -1.82589       -1.59076
H         -1.85026       -2.08963       -6.65972
H         -0.72123       -2.12482       -5.30820
H         -2.02835       -3.33102       -5.41967
H          0.85409        4.09062       -1.61312
H         -0.65927        3.76694       -0.69131
H          0.68571        4.61477        0.07485

--Link1--
%chk=JID_6303.chk
%mem=8GB
%nprocshared=4
# B3LYP/6-311++G(d,p) empiricaldispersion=gd3bj scf=xqc pop=npa geom=check

CID_70188766_JID_6303_Energie_neutraal

0 1

--Link1--
%chk=JID_6303.chk
%mem=8GB
%nprocshared=4
# B3LYP/6-311++G(d,p) empiricaldispersion=gd3bj scf=xqc pop=npa geom=check

CID_70188766_JID_6303_Energie_kation

1 2

--Link1--
%chk=JID_6303.chk
%mem=8GB
%nprocshared=4
# B3LYP/6-311++G(d,p) empiricaldispersion=gd3bj scf=xqc pop=npa geom=check

CID_70188766_JID_6303_Energie_anion

-1 2
