%chk=JID_4932.chk
%mem=8GB
%nprocshared=4
# opt freq B3LYP/6-31G(d) empiricaldispersion=gd3bj scf=xqc

CID_62430283_JID_4932_neutraal

0 1
C          1.02344        0.07743       -0.05878
N          0.38016        0.95123        0.91191
C         -1.06645        1.04308        0.72794
C         -1.85165       -0.24737        0.99553
C         -1.67320       -0.85961        2.39115
C         -2.04749        0.04693        3.57147
C         -3.51752        0.49942        3.63732
N         -4.38579       -0.32255        4.49379
C         -5.71328        0.29366        4.69794
C         -6.62951        0.30118        3.47420
S         -7.01971       -1.37250        2.88883
O         -7.70238       -2.11517        3.99877
C         -5.30065       -1.94932        2.78636
C         -4.54735       -1.72867        4.09530
H          0.79492        0.38385       -1.08461
H          0.73557       -0.96918        0.07716
H          2.10920        0.13844        0.06585
H          0.59978        0.63496        1.85526
H         -1.44009        1.83467        1.38731
H         -1.28300        1.38905       -0.29049
H         -2.91379       -0.04739        0.81478
H         -1.57234       -1.00376        0.25173
H         -2.25207       -1.78658        2.42687
H         -0.62739       -1.16628        2.51535
H         -1.77568       -0.45874        4.50715
H         -1.41337        0.94152        3.53868
H         -3.49843        1.50639        4.07589
H         -3.93278        0.62224        2.63370
H         -6.21256       -0.22711        5.52600
H         -5.58181        1.32452        5.05027
H         -6.19150        0.85840        2.64077
H         -7.58064        0.78173        3.72547
H         -4.82025       -1.44211        1.94484
H         -5.33502       -3.01802        2.55154
H         -3.56986       -2.21725        4.04860
H         -5.06709       -2.25740        4.90625

--Link1--
%chk=JID_4932.chk
%mem=8GB
%nprocshared=4
# B3LYP/6-311++G(d,p) empiricaldispersion=gd3bj scf=xqc pop=npa geom=check

CID_62430283_JID_4932_Energie_neutraal

0 1

--Link1--
%chk=JID_4932.chk
%mem=8GB
%nprocshared=4
# B3LYP/6-311++G(d,p) empiricaldispersion=gd3bj scf=xqc pop=npa geom=check

CID_62430283_JID_4932_Energie_kation

1 2

--Link1--
%chk=JID_4932.chk
%mem=8GB
%nprocshared=4
# B3LYP/6-311++G(d,p) empiricaldispersion=gd3bj scf=xqc pop=npa geom=check

CID_62430283_JID_4932_Energie_anion

-1 2
