%chk=JID_2517.chk
%mem=8GB
%nprocshared=4
# opt freq B3LYP/6-31G(d) empiricaldispersion=gd3bj scf=xqc

CID_54142335_JID_2517_neutraal

0 1
C          0.97121       -0.01900        0.09386
C          0.53829        0.48508        1.46612
C          0.95040        1.96150        1.72844
C          0.35732        2.98067        0.70871
C         -1.17120        3.00586        0.46974
C         -2.04056        3.28402        1.70294
O         -1.48044        4.34218        2.49515
O         -1.42926        4.06790       -0.47976
O          0.78621        4.32046        1.05709
N          0.67022        2.29248        3.15337
C          1.81587        2.91512        3.80662
O         -0.87496        0.30488        1.57810
H          0.42854        0.48664       -0.71121
H          0.74036       -1.08554       -0.00514
H          2.04573        0.11681       -0.06048
H          1.01099       -0.14677        2.22954
H          2.04090        2.00112        1.59074
H          0.83329        2.79801       -0.26263
H         -1.51080        2.08735       -0.01630
H         -3.04416        3.59665        1.39456
H         -2.13207        2.40235        2.34158
H         -2.18910        4.61886        3.10657
H         -0.84054        4.80057       -0.20531
H          0.23024        4.57408        1.82618
H         -0.11676        2.94151        3.20377
H          2.11379        3.84621        3.31569
H          1.55576        3.15194        4.84304
H          2.67179        2.23299        3.83330
H         -1.02375       -0.64154        1.75060

--Link1--
%chk=JID_2517.chk
%mem=8GB
%nprocshared=4
# B3LYP/6-311++G(d,p) empiricaldispersion=gd3bj scf=xqc pop=npa geom=check

CID_54142335_JID_2517_Energie_neutraal

0 1

--Link1--
%chk=JID_2517.chk
%mem=8GB
%nprocshared=4
# B3LYP/6-311++G(d,p) empiricaldispersion=gd3bj scf=xqc pop=npa geom=check

CID_54142335_JID_2517_Energie_kation

1 2

--Link1--
%chk=JID_2517.chk
%mem=8GB
%nprocshared=4
# B3LYP/6-311++G(d,p) empiricaldispersion=gd3bj scf=xqc pop=npa geom=check

CID_54142335_JID_2517_Energie_anion

-1 2
