%chk=JID_8322.chk
%mem=8GB
%nprocshared=4
# opt freq B3LYP/6-31G(d) empiricaldispersion=gd3bj scf=xqc

CID_107713647_JID_8322_neutraal

0 1
C         -0.02900        0.88300        0.00000
C          0.24055        0.13735        1.26192
C          1.39810        0.74005        0.48987
C          2.35816       -0.18577       -0.25928
N          1.94441       -1.31665       -0.84090
S          3.29767       -2.01952       -1.52136
C          4.33704       -0.76390       -0.99753
N          3.69935        0.16847       -0.32467
O          5.64910       -0.78330       -1.24141
C          6.41220        0.29544       -0.86409
C          6.45214        1.41617       -1.69876
C          7.25846        2.50196       -1.36350
C          8.03094        2.46162       -0.20428
C          8.00203        1.33452        0.62021
C          7.19510        0.23207        0.29861
C          7.19948       -0.98645        1.19408
C          8.03881       -2.13057        0.62671
O          9.42771       -1.81551        0.66587
H         -0.48830        1.86195        0.07242
H         -0.34211        0.31501       -0.86922
H         -0.03305        0.60440        2.20076
H          0.11148       -0.93937        1.25355
H          1.87122        1.62036        0.91038
H          5.85359        1.44702       -2.60484
H          7.28429        3.37910       -2.00483
H          8.65850        3.30968        0.05928
H          8.61681        1.32181        1.51858
H          7.58305       -0.70697        2.18338
H          6.16730       -1.32195        1.34829
H          7.89422       -3.02714        1.23770
H          7.76674       -2.37960       -0.40391
H          9.56281       -1.05413        0.07360

--Link1--
%chk=JID_8322.chk
%mem=8GB
%nprocshared=4
# B3LYP/6-311++G(d,p) empiricaldispersion=gd3bj scf=xqc pop=npa geom=check

CID_107713647_JID_8322_Energie_neutraal

0 1

--Link1--
%chk=JID_8322.chk
%mem=8GB
%nprocshared=4
# B3LYP/6-311++G(d,p) empiricaldispersion=gd3bj scf=xqc pop=npa geom=check

CID_107713647_JID_8322_Energie_kation

1 2

--Link1--
%chk=JID_8322.chk
%mem=8GB
%nprocshared=4
# B3LYP/6-311++G(d,p) empiricaldispersion=gd3bj scf=xqc pop=npa geom=check

CID_107713647_JID_8322_Energie_anion

-1 2
