%chk=JID_5676.chk
%mem=8GB
%nprocshared=4
# opt freq B3LYP/6-31G(d) empiricaldispersion=gd3bj scf=xqc

CID_44890860_JID_5676_neutraal

0 1
C          1.30600        0.17900       -0.14100
C          0.93669       -1.14766        0.48898
C         -0.55850       -1.01628        0.69688
N         -0.77279        0.39581        1.01232
C          0.34258        1.17703        0.48544
C         -1.19671        0.67644        2.38972
C         -0.32980        0.16633        3.57661
C          0.97966        0.94018        3.83133
O          0.81174        2.34950        3.95638
C         -1.17536        0.08127        4.84835
C         -1.68510        1.22735        5.47651
C         -2.45899        1.12092        6.63382
C         -2.73750       -0.13072        7.17672
C         -2.24315       -1.27861        6.56241
C         -1.46854       -1.17424        5.40561
H          2.35347        0.44058        0.03620
H          1.14429        0.13247       -1.22481
H          1.45387       -1.26772        1.44746
H          1.19814       -1.99602       -0.15010
H         -1.08019       -1.24168       -0.24149
H         -0.94174       -1.71494        1.44755
H          0.85841        1.76530        1.24504
H         -0.01589        1.88589       -0.26903
H         -1.37962        1.75401        2.48953
H         -2.19634        0.22824        2.48507
H         -0.02181       -0.86277        3.35344
H          1.45258        0.58817        4.75539
H          1.70048        0.75808        3.02859
H          0.50719        2.69918        3.10354
H         -1.47795        2.21731        5.07677
H         -2.84098        2.01884        7.11270
H         -3.33819       -0.21119        8.07850
H         -2.45984       -2.25631        6.98422
H         -1.09551       -2.08557        4.94324

--Link1--
%chk=JID_5676.chk
%mem=8GB
%nprocshared=4
# B3LYP/6-311++G(d,p) empiricaldispersion=gd3bj scf=xqc pop=npa geom=check

CID_44890860_JID_5676_Energie_neutraal

0 1

--Link1--
%chk=JID_5676.chk
%mem=8GB
%nprocshared=4
# B3LYP/6-311++G(d,p) empiricaldispersion=gd3bj scf=xqc pop=npa geom=check

CID_44890860_JID_5676_Energie_kation

1 2

--Link1--
%chk=JID_5676.chk
%mem=8GB
%nprocshared=4
# B3LYP/6-311++G(d,p) empiricaldispersion=gd3bj scf=xqc pop=npa geom=check

CID_44890860_JID_5676_Energie_anion

-1 2
