%chk=JID_7695.chk
%mem=8GB
%nprocshared=4
# opt freq B3LYP/6-31G(d) empiricaldispersion=gd3bj scf=xqc

CID_113257786_JID_7695_neutraal

0 1
C          0.94174       -0.07409        0.03342
C          1.18172        1.31360        0.62105
C          1.08577        2.51001       -0.37114
C          0.07098        2.28229       -1.50705
C          0.54963        3.78145        0.39895
O          1.08023        4.89142        0.34177
N         -0.62292        3.65617        1.08945
N          2.42348        2.89959       -0.87402
C          3.26228        1.94685       -1.58148
C          2.84256        1.75637       -3.00149
C          2.79583        2.69419       -4.03059
N          2.34304        1.99681       -5.10747
C          2.04676        2.25991       -6.42442
C          1.61660        1.15653       -7.06154
S          1.56846       -0.27327       -6.01200
C          2.15286        0.71025       -4.70684
N          2.43942        0.50323       -3.45286
H         -0.09662       -0.18871       -0.29319
H          1.12585       -0.83552        0.79889
H          1.59518       -0.29348       -0.81250
H          0.47722        1.43027        1.45213
H          2.16685        1.32187        1.10764
H         -0.93804        2.11342       -1.11312
H          0.00965        3.15919       -2.16311
H          0.31213        1.41709       -2.12760
H         -1.16042        2.80342        1.13832
H         -0.97294        4.48151        1.55779
H          2.36121        3.78837       -1.36991
H          4.28298        2.34924       -1.59100
H          3.34030        0.99186       -1.05633
H          3.03321        3.74725       -4.06587
H          2.16595        3.25060       -6.83337
H          1.32139        1.10183       -8.10092

--Link1--
%chk=JID_7695.chk
%mem=8GB
%nprocshared=4
# B3LYP/6-311++G(d,p) empiricaldispersion=gd3bj scf=xqc pop=npa geom=check

CID_113257786_JID_7695_Energie_neutraal

0 1

--Link1--
%chk=JID_7695.chk
%mem=8GB
%nprocshared=4
# B3LYP/6-311++G(d,p) empiricaldispersion=gd3bj scf=xqc pop=npa geom=check

CID_113257786_JID_7695_Energie_kation

1 2

--Link1--
%chk=JID_7695.chk
%mem=8GB
%nprocshared=4
# B3LYP/6-311++G(d,p) empiricaldispersion=gd3bj scf=xqc pop=npa geom=check

CID_113257786_JID_7695_Energie_anion

-1 2
