%chk=JID_7362.chk
%mem=8GB
%nprocshared=4
# opt freq B3LYP/6-31G(d) empiricaldispersion=gd3bj scf=xqc

CID_153176955_JID_7362_neutraal

0 1
C          1.04593       -0.08035        0.03788
C          0.11668       -0.17583       -1.16266
C          0.84255        0.11075       -2.45238
C          1.52335       -0.91468       -3.12656
C          2.20363       -0.66561       -4.32831
C          2.22174        0.63648       -4.84221
C          1.57403        1.67007       -4.15870
C          0.86770        1.40713       -2.98109
C          1.60680        3.02933       -4.73826
O          1.32300        3.19499       -5.92055
N          1.98578        4.09666       -3.96099
C          2.81674        4.06282       -2.76268
C          4.28984        3.76668       -3.06551
O          4.89300        4.87111       -3.74625
C          5.11393        4.61193       -5.12700
C          2.92527       -1.77980       -5.04258
C          4.33603       -1.97222       -4.50757
H          1.86654       -0.80208       -0.03532
H          0.49444       -0.28694        0.96052
H          1.48492        0.91977        0.12112
H         -0.33225       -1.17551       -1.20771
H         -0.71718        0.52629       -1.04168
H          1.51467       -1.92355       -2.71591
H          2.73835        0.85317       -5.77525
H          0.33071        2.21131       -2.48322
H          2.03012        4.95532       -4.49829
H          2.72100        5.05131       -2.30089
H          2.42863        3.32016       -2.06340
H          4.82295        3.65890       -2.11490
H          4.41510        2.83027       -3.62141
H          5.81025        3.77671       -5.24971
H          4.17495        4.39794       -5.64326
H          5.56048        5.50366       -5.57509
H          2.35680       -2.71186       -4.93712
H          2.96366       -1.56802       -6.11804
H          4.32623       -2.22853       -3.44270
H          4.83775       -2.78234       -5.04614
H          4.93374       -1.06234       -4.62827

--Link1--
%chk=JID_7362.chk
%mem=8GB
%nprocshared=4
# B3LYP/6-311++G(d,p) empiricaldispersion=gd3bj scf=xqc pop=npa geom=check

CID_153176955_JID_7362_Energie_neutraal

0 1

--Link1--
%chk=JID_7362.chk
%mem=8GB
%nprocshared=4
# B3LYP/6-311++G(d,p) empiricaldispersion=gd3bj scf=xqc pop=npa geom=check

CID_153176955_JID_7362_Energie_kation

1 2

--Link1--
%chk=JID_7362.chk
%mem=8GB
%nprocshared=4
# B3LYP/6-311++G(d,p) empiricaldispersion=gd3bj scf=xqc pop=npa geom=check

CID_153176955_JID_7362_Energie_anion

-1 2
