%chk=JID_4404.chk
%mem=8GB
%nprocshared=4
# opt freq B3LYP/6-31G(d) empiricaldispersion=gd3bj scf=xqc

CID_64159883_JID_4404_neutraal

0 1
C          2.54100        1.06400        0.00800
C          1.24969        0.30277        0.05401
C          0.02757        0.97294       -0.06960
C         -1.19783        0.28384       -0.00016
C         -1.20216       -1.11039        0.23126
C          0.03530       -1.76989        0.35366
C          1.24323       -1.07376        0.27548
C         -2.49659       -1.89751        0.30178
C         -2.95190       -2.43085       -1.06478
C         -3.42441       -3.85598       -0.78957
C         -3.54474       -3.93161        0.72868
N         -2.42324       -3.09262        1.16449
O         -2.43012       -4.77790       -1.24133
C         -2.47156        1.07153       -0.15315
H          2.47851        1.89169       -0.70632
H          2.77394        1.46590        0.99884
H          3.36621        0.41983       -0.31343
H          0.03050        2.05039       -0.22736
H          0.06744       -2.84508        0.51881
H          2.17716       -1.61919        0.38851
H         -3.28648       -1.26072        0.72028
H         -3.78800       -1.82154       -1.42760
H         -2.15896       -2.40988       -1.82121
H         -4.36230       -4.09229       -1.29967
H         -3.43507       -4.94998        1.11180
H         -4.49464       -3.50818        1.07401
H         -2.52349       -2.81918        2.14082
H         -1.65191       -4.61726       -0.67277
H         -3.01349        1.10164        0.79724
H         -2.27187        2.10520       -0.45552
H         -3.10752        0.62965       -0.92629

--Link1--
%chk=JID_4404.chk
%mem=8GB
%nprocshared=4
# B3LYP/6-311++G(d,p) empiricaldispersion=gd3bj scf=xqc pop=npa geom=check

CID_64159883_JID_4404_Energie_neutraal

0 1

--Link1--
%chk=JID_4404.chk
%mem=8GB
%nprocshared=4
# B3LYP/6-311++G(d,p) empiricaldispersion=gd3bj scf=xqc pop=npa geom=check

CID_64159883_JID_4404_Energie_kation

1 2

--Link1--
%chk=JID_4404.chk
%mem=8GB
%nprocshared=4
# B3LYP/6-311++G(d,p) empiricaldispersion=gd3bj scf=xqc pop=npa geom=check

CID_64159883_JID_4404_Energie_anion

-1 2
