%chk=JID_2028.chk
%mem=8GB
%nprocshared=4
# opt freq B3LYP/6-31G(d) empiricaldispersion=gd3bj scf=xqc

CID_4220142_JID_2028_neutraal

0 1
C          1.00769        0.07001        0.07099
C         -0.32592       -0.66889       -0.05704
C         -0.58859       -1.49055        1.20590
C         -1.48934        0.30250       -0.30644
C         -1.41957        0.90653       -1.69572
O         -1.56248        0.21970       -2.70652
N         -1.17505        2.24061       -1.83527
C         -0.98537        3.22615       -0.78790
C         -0.65799        4.61285       -1.33632
C         -1.83206        5.28012       -2.05471
O         -2.49486        6.23995       -1.23217
C         -3.40305        5.67387       -0.30021
H          0.98743        0.78663        0.89902
H          1.24848        0.61594       -0.84663
H          1.82456       -0.63564        0.25695
H         -0.24703       -1.36429       -0.90242
H         -0.67391       -0.84744        2.08847
H         -1.51765       -2.06261        1.11157
H          0.22427       -2.20290        1.38285
H         -2.44670       -0.23155       -0.25272
H         -1.52558        1.06655        0.47436
H         -1.12676        2.52729       -2.80675
H         -1.88575        3.23822       -0.16783
H         -0.15582        2.88193       -0.16129
H         -0.31483        5.25038       -0.51322
H          0.17514        4.51131       -2.04315
H         -1.42994        5.85057       -2.89957
H         -2.54958        4.56478       -2.47190
H         -4.09458        4.98391       -0.79286
H         -2.86133        5.16648        0.50155
H         -3.98311        6.48617        0.14652

--Link1--
%chk=JID_2028.chk
%mem=8GB
%nprocshared=4
# B3LYP/6-311++G(d,p) empiricaldispersion=gd3bj scf=xqc pop=npa geom=check

CID_4220142_JID_2028_Energie_neutraal

0 1

--Link1--
%chk=JID_2028.chk
%mem=8GB
%nprocshared=4
# B3LYP/6-311++G(d,p) empiricaldispersion=gd3bj scf=xqc pop=npa geom=check

CID_4220142_JID_2028_Energie_kation

1 2

--Link1--
%chk=JID_2028.chk
%mem=8GB
%nprocshared=4
# B3LYP/6-311++G(d,p) empiricaldispersion=gd3bj scf=xqc pop=npa geom=check

CID_4220142_JID_2028_Energie_anion

-1 2
