%chk=JID_3023.chk
%mem=8GB
%nprocshared=4
# opt freq B3LYP/6-31G(d) empiricaldispersion=gd3bj scf=xqc

CID_87443838_JID_3023_neutraal

0 1
C          0.94488        0.06672        0.05010
C          0.33866        0.03836        1.46336
C          0.72054        1.34088        2.19093
C         -1.19425       -0.03220        1.35532
C          0.88649       -1.15560        2.28224
N          0.69094       -2.43880        1.62887
C          1.61178       -3.41260        1.36518
O          1.23517       -4.45297        0.82277
C          3.07985       -3.18158        1.71416
N          3.67831       -2.22323        0.80418
C          4.54579       -1.24337        1.13714
O          5.06676       -0.47317        0.35068
O          4.79904       -1.16374        2.45033
H          0.58493        0.93520       -0.51360
H          0.67916       -0.82679       -0.52476
H          2.03684        0.13181        0.08935
H          0.34631        2.22039        1.65489
H          0.30366        1.36508        3.20404
H          1.80866        1.44240        2.27517
H         -1.52081       -0.91649        0.79824
H         -1.65888       -0.06904        2.34701
H         -1.59294        0.84669        0.83557
H          1.94397       -1.00236        2.50606
H          0.36798       -1.22086        3.24632
H         -0.25385       -2.71521        1.38907
H          3.17102       -2.87904        2.76073
H          3.62031       -4.12596        1.59140
H          3.50487       -2.32737       -0.18718
H          5.44002       -0.42528        2.50456

--Link1--
%chk=JID_3023.chk
%mem=8GB
%nprocshared=4
# B3LYP/6-311++G(d,p) empiricaldispersion=gd3bj scf=xqc pop=npa geom=check

CID_87443838_JID_3023_Energie_neutraal

0 1

--Link1--
%chk=JID_3023.chk
%mem=8GB
%nprocshared=4
# B3LYP/6-311++G(d,p) empiricaldispersion=gd3bj scf=xqc pop=npa geom=check

CID_87443838_JID_3023_Energie_kation

1 2

--Link1--
%chk=JID_3023.chk
%mem=8GB
%nprocshared=4
# B3LYP/6-311++G(d,p) empiricaldispersion=gd3bj scf=xqc pop=npa geom=check

CID_87443838_JID_3023_Energie_anion

-1 2
