%chk=JID_8064.chk
%mem=8GB
%nprocshared=4
# opt freq B3LYP/6-31G(d) empiricaldispersion=gd3bj scf=xqc

CID_64081709_JID_8064_neutraal

0 1
C          0.98492        0.01668        0.09744
N          0.03622        0.46214       -0.91721
C         -1.26362        0.81134       -0.32969
C         -1.35998        2.23224        0.27383
N         -1.23868        3.32382       -0.70001
C         -2.41097        3.59259       -1.52335
C          0.01194        3.81247       -0.99171
O          1.05479        3.24810       -0.66629
N          0.10731        4.97347       -1.69622
C         -0.56662        6.20184       -1.30212
C          0.11641        6.90231       -0.12239
C          1.58146        7.29521       -0.35069
C          1.85488        8.15660       -1.58791
C          1.09389        9.48660       -1.65086
C          1.41080       10.45234       -0.51119
C          2.84218       10.91257       -0.54726
O          3.45077       11.31859       -1.52276
O          3.43710       10.85232        0.65814
H          0.63641       -0.89862        0.58660
H          1.16492        0.78196        0.85846
H          1.94324       -0.21197       -0.37931
H          0.42995        1.31201       -1.33831
H         -2.01049        0.71244       -1.12473
H         -1.54403        0.07442        0.43313
H         -2.32964        2.34721        0.77301
H         -0.59257        2.36158        1.04604
H         -3.18586        4.03681       -0.89244
H         -2.19022        4.25611       -2.36223
H         -2.78471        2.65462       -1.94263
H          1.07502        5.11274       -1.95864
H         -0.59438        6.84990       -2.18284
H         -1.59952        5.99147       -1.01472
H         -0.46267        7.79657        0.13649
H          0.07439        6.24699        0.75702
H          1.94565        7.81371        0.54420
H          2.18887        6.38475       -0.42578
H          2.93293        8.35312       -1.63823
H          1.62021        7.57957       -2.49019
H          1.33005        9.96814       -2.60832
H          0.01500        9.29569       -1.66498
H          0.78086       11.34554       -0.59002
H          1.18971        9.99216        0.45716
H          4.34796       11.17394        0.49046

--Link1--
%chk=JID_8064.chk
%mem=8GB
%nprocshared=4
# B3LYP/6-311++G(d,p) empiricaldispersion=gd3bj scf=xqc pop=npa geom=check

CID_64081709_JID_8064_Energie_neutraal

0 1

--Link1--
%chk=JID_8064.chk
%mem=8GB
%nprocshared=4
# B3LYP/6-311++G(d,p) empiricaldispersion=gd3bj scf=xqc pop=npa geom=check

CID_64081709_JID_8064_Energie_kation

1 2

--Link1--
%chk=JID_8064.chk
%mem=8GB
%nprocshared=4
# B3LYP/6-311++G(d,p) empiricaldispersion=gd3bj scf=xqc pop=npa geom=check

CID_64081709_JID_8064_Energie_anion

-1 2
