%chk=JID_7883.chk
%mem=8GB
%nprocshared=4
# opt freq B3LYP/6-31G(d) empiricaldispersion=gd3bj scf=xqc

CID_54959255_JID_7883_neutraal

0 1
C          1.04077        0.06754       -0.06145
C          0.45157       -0.75999        1.07384
C          1.08222       -0.45291        2.43228
C          0.72441        0.89588        2.92971
N          1.30140        2.05214        2.69856
C          0.49845        2.92054        3.40347
N         -0.50602        2.33380        4.07335
O         -0.36240        0.98379        3.74961
C          0.73595        4.39479        3.43011
O         -0.23269        5.08119        2.63272
C         -0.21929        6.44857        2.62848
C         -1.31387        7.00330        1.95191
C         -1.46744        8.38581        1.83878
C         -0.51942        9.23430        2.40095
C          0.57932        8.69910        3.07349
C          0.73027        7.31151        3.18652
O          1.82820        6.83174        3.84571
H          0.82366        1.13265        0.06232
H          0.61253       -0.24958       -1.01779
H          2.12642       -0.06041       -0.11828
H         -0.63328       -0.60320        1.11118
H          0.61361       -1.82047        0.84633
H          0.74691       -1.20421        3.15743
H          2.17295       -0.54208        2.37019
H          0.67818        4.73087        4.47252
H          1.73886        4.57659        3.02693
H         -2.05873        6.34460        1.51006
H         -2.32597        8.79464        1.31248
H         -0.63494       10.31164        2.31444
H          1.30862        9.37998        3.50252
H          2.38388        7.58000        4.11997

--Link1--
%chk=JID_7883.chk
%mem=8GB
%nprocshared=4
# B3LYP/6-311++G(d,p) empiricaldispersion=gd3bj scf=xqc pop=npa geom=check

CID_54959255_JID_7883_Energie_neutraal

0 1

--Link1--
%chk=JID_7883.chk
%mem=8GB
%nprocshared=4
# B3LYP/6-311++G(d,p) empiricaldispersion=gd3bj scf=xqc pop=npa geom=check

CID_54959255_JID_7883_Energie_kation

1 2

--Link1--
%chk=JID_7883.chk
%mem=8GB
%nprocshared=4
# B3LYP/6-311++G(d,p) empiricaldispersion=gd3bj scf=xqc pop=npa geom=check

CID_54959255_JID_7883_Energie_anion

-1 2
