%chk=JID_10070.chk
%mem=8GB
%nprocshared=4
# opt freq B3LYP/6-31G(d) empiricaldispersion=gd3bj scf=xqc

CID_104499845_JID_10070_neutraal

0 1
C         -1.50200        0.71300        0.14900
C         -1.91759       -0.72025       -0.13027
C         -0.76464       -1.33291       -1.00611
C          0.83308       -1.34594       -1.09497
N          1.41580       -0.21328       -0.31524
C          0.87647        1.10327       -0.75375
C         -0.63487        1.00616       -1.05461
O         -0.85987       -0.15799       -1.88098
C          2.80878       -0.18495       -0.15829
C          3.70456       -0.69134       -1.10472
C          5.08896       -0.60184       -0.88306
C          5.61509       -0.02439        0.27087
C          4.72404        0.47516        1.22539
C          3.34194        0.39733        1.00495
C          7.06940        0.13579        0.45908
O          7.88440        0.32682       -0.42030
O          7.42125        0.04817        1.75240
N          5.95944       -1.19363       -1.87575
O          5.89819       -0.73079       -3.02249
O          6.62798       -2.17322       -1.52017
H         -0.95703        0.81417        1.09296
H         -2.37670        1.36956        0.19474
H         -2.15627       -1.27546        0.78875
H         -2.84858       -0.73351       -0.71684
H         -0.45834       -1.58856        0.03297
H          1.13538       -1.28608       -2.15047
H          1.21801       -2.30599       -0.71709
H          1.38851        1.40319       -1.67796
H          1.05623        1.87368        0.00520
H         -0.97222        1.89903       -1.59018
H          3.34539       -1.14046       -2.02655
H          5.09077        0.93824        2.13936
H          2.66444        0.78602        1.76392
H          8.39900        0.13048        1.74297

--Link1--
%chk=JID_10070.chk
%mem=8GB
%nprocshared=4
# B3LYP/6-311++G(d,p) empiricaldispersion=gd3bj scf=xqc pop=npa geom=check

CID_104499845_JID_10070_Energie_neutraal

0 1

--Link1--
%chk=JID_10070.chk
%mem=8GB
%nprocshared=4
# B3LYP/6-311++G(d,p) empiricaldispersion=gd3bj scf=xqc pop=npa geom=check

CID_104499845_JID_10070_Energie_kation

1 2

--Link1--
%chk=JID_10070.chk
%mem=8GB
%nprocshared=4
# B3LYP/6-311++G(d,p) empiricaldispersion=gd3bj scf=xqc pop=npa geom=check

CID_104499845_JID_10070_Energie_anion

-1 2
