%chk=JID_4081.chk
%mem=8GB
%nprocshared=4
# opt freq B3LYP/6-31G(d) empiricaldispersion=gd3bj scf=xqc

CID_131027709_JID_4081_neutraal

0 1
C          1.04897       -0.07950       -0.03580
C          0.96216        1.08116        0.94279
C          1.43726        2.36657        0.31812
N          0.50693        3.12836       -0.30215
C          0.93467        4.27024       -0.87505
C          2.25617        4.68583       -0.87553
C          3.21679        3.89143       -0.24875
C          2.78699        2.71492        0.36078
N          4.56151        4.27235       -0.27360
C          5.56846        3.51519       -1.05139
C          5.20721        3.30129       -2.52026
C          4.46545        1.98260       -2.65734
S          5.24435        0.86138       -1.46763
C          5.99794        2.17420       -0.45638
H          0.44561        0.11003       -0.93014
H          0.68271       -0.99824        0.43302
H          2.08121       -0.25181       -0.35817
H         -0.07678        1.20430        1.27132
H          1.54960        0.86152        1.84197
H          0.16233        4.86300       -1.35611
H          2.52216        5.61338       -1.36865
H          3.48567        2.07306        0.88355
H          4.63700        5.26571       -0.49085
H          6.45380        4.16498       -1.02550
H          6.13277        3.24662       -3.10984
H          4.62231        4.12878       -2.93622
H          3.40233        2.08160       -2.42666
H          4.55094        1.58134       -3.67138
H          7.08330        2.05601       -0.54535
H          5.73981        2.06208        0.59973

--Link1--
%chk=JID_4081.chk
%mem=8GB
%nprocshared=4
# B3LYP/6-311++G(d,p) empiricaldispersion=gd3bj scf=xqc pop=npa geom=check

CID_131027709_JID_4081_Energie_neutraal

0 1

--Link1--
%chk=JID_4081.chk
%mem=8GB
%nprocshared=4
# B3LYP/6-311++G(d,p) empiricaldispersion=gd3bj scf=xqc pop=npa geom=check

CID_131027709_JID_4081_Energie_kation

1 2

--Link1--
%chk=JID_4081.chk
%mem=8GB
%nprocshared=4
# B3LYP/6-311++G(d,p) empiricaldispersion=gd3bj scf=xqc pop=npa geom=check

CID_131027709_JID_4081_Energie_anion

-1 2
