%chk=JID_2578.chk
%mem=8GB
%nprocshared=4
# opt freq B3LYP/6-31G(d) empiricaldispersion=gd3bj scf=xqc

CID_63029962_JID_2578_neutraal

0 1
C          1.05909       -0.07687        0.02446
N          0.49121       -0.42909        1.31511
C         -0.96530       -0.20462        1.39815
C         -1.82606       -1.07707        0.46313
C         -1.51168       -2.57211        0.40263
O         -1.90742       -3.28806        1.56209
C         -0.89357       -3.61502        2.51852
C          0.27543       -4.43356        1.96524
O          1.26725       -3.53794        1.43909
C          2.38331       -4.24762        0.91543
C         -1.45918       -0.28001        2.79951
N         -1.85519       -0.32299        3.89147
H          0.85520        0.96856       -0.22807
H          0.68692       -0.71823       -0.77964
H          2.14641       -0.19633        0.06419
H          0.71782       -1.40560        1.53167
H         -1.14490        0.83906        1.10164
H         -2.88384       -0.95389        0.73210
H         -1.72043       -0.68368       -0.55671
H         -2.12148       -2.98684       -0.40959
H         -0.48143       -2.76239        0.10233
H         -0.52894       -2.70834        3.00212
H         -1.40133       -4.21133        3.28394
H          0.73322       -5.00647        2.77915
H         -0.06361       -5.11355        1.17627
H          2.86678       -4.83570        1.70113
H          2.07031       -4.89838        0.09340
H          3.10215       -3.51959        0.53003

--Link1--
%chk=JID_2578.chk
%mem=8GB
%nprocshared=4
# B3LYP/6-311++G(d,p) empiricaldispersion=gd3bj scf=xqc pop=npa geom=check

CID_63029962_JID_2578_Energie_neutraal

0 1

--Link1--
%chk=JID_2578.chk
%mem=8GB
%nprocshared=4
# B3LYP/6-311++G(d,p) empiricaldispersion=gd3bj scf=xqc pop=npa geom=check

CID_63029962_JID_2578_Energie_kation

1 2

--Link1--
%chk=JID_2578.chk
%mem=8GB
%nprocshared=4
# B3LYP/6-311++G(d,p) empiricaldispersion=gd3bj scf=xqc pop=npa geom=check

CID_63029962_JID_2578_Energie_anion

-1 2
