%chk=JID_7758.chk
%mem=8GB
%nprocshared=4
# opt freq B3LYP/6-31G(d) empiricaldispersion=gd3bj scf=xqc

CID_123203782_JID_7758_neutraal

0 1
C         -0.71700        1.22600        0.24100
C          0.80642        1.24127        0.45309
O          1.24830        0.08261        1.17563
C          0.90432       -1.10561        0.45214
C         -0.62205       -1.20657        0.25774
N         -1.25303       -0.01580       -0.32778
C         -1.44488       -0.03456       -1.77858
C         -0.21020       -0.06085       -2.64802
C          0.38143        1.13186       -3.08959
C          1.52269        1.10462       -3.89336
C          2.08008       -0.11441       -4.27315
C          1.49315       -1.30706       -3.85682
C          0.35163       -1.28131       -3.05405
C          1.37502       -2.37256        1.14839
O          1.66369       -3.40801        0.55483
C          1.35817       -2.42628        2.65644
N          1.35610       -1.39100        3.43111
H         -1.18356        1.33793        1.22857
H         -1.03027        2.10346       -0.33635
H          1.35660        1.30467       -0.48989
H          1.08175        2.11859        1.04757
H          1.43537       -1.07327       -0.50470
H         -1.08242       -1.33863        1.24669
H         -0.88766       -2.11254       -0.30128
H         -2.07099       -0.89945       -2.03752
H         -2.06236        0.82631       -2.06929
H         -0.04524        2.09241       -2.80980
H          1.97550        2.03491       -4.22688
H          2.96811       -0.13563       -4.89966
H          1.92280       -2.25902       -4.15905
H         -0.09629       -2.22375       -2.74545
H          1.35180       -3.44315        3.07999
H          1.38507       -0.52309        2.86510

--Link1--
%chk=JID_7758.chk
%mem=8GB
%nprocshared=4
# B3LYP/6-311++G(d,p) empiricaldispersion=gd3bj scf=xqc pop=npa geom=check

CID_123203782_JID_7758_Energie_neutraal

0 1

--Link1--
%chk=JID_7758.chk
%mem=8GB
%nprocshared=4
# B3LYP/6-311++G(d,p) empiricaldispersion=gd3bj scf=xqc pop=npa geom=check

CID_123203782_JID_7758_Energie_kation

1 2

--Link1--
%chk=JID_7758.chk
%mem=8GB
%nprocshared=4
# B3LYP/6-311++G(d,p) empiricaldispersion=gd3bj scf=xqc pop=npa geom=check

CID_123203782_JID_7758_Energie_anion

-1 2
