%chk=JID_9517.chk
%mem=8GB
%nprocshared=4
# opt freq B3LYP/6-31G(d) empiricaldispersion=gd3bj scf=xqc

CID_121656663_JID_9517_neutraal

0 1
C          1.02214       -0.07396       -0.06356
C          0.39721       -0.76265       -1.29864
C          1.23640       -0.43128       -2.56270
N          2.57818       -1.01998       -2.50023
C          2.52691       -2.47921       -2.41523
C          1.73779       -2.93791       -1.18668
C          0.33749       -2.31206       -1.15916
N         -0.39378       -2.75957        0.03397
C          3.49189       -0.52544       -3.54898
C          3.20950       -0.94445       -4.97425
C          2.23485       -0.26898       -5.73553
C          1.97180       -0.61526       -7.07144
C          2.68917       -1.63496       -7.69098
C          3.65039       -2.29452       -6.94652
C          3.90303       -1.97351       -5.60671
N          5.00237       -2.70734       -5.08571
C          5.13674       -3.82706       -6.03037
C          4.59581       -3.35826       -7.38968
C         -1.02262       -0.18968       -1.49224
H          0.40887       -0.21967        0.83217
H          1.10374        1.00772       -0.22323
H          2.02723       -0.44487        0.15832
H          0.70035       -0.78853       -3.45131
H          1.31643        0.65992       -2.65391
H          3.54077       -2.88558       -2.32572
H          2.07491       -2.91511       -3.31498
H          2.29534       -2.68383       -0.27626
H          1.65901       -4.03243       -1.20525
H         -0.21414       -2.70607       -2.02398
H         -0.41653       -3.77843        0.05644
H          0.11500       -2.47700        0.87119
H          3.52076        0.57231       -3.50982
H          4.51433       -0.81704       -3.27664
H          1.67762        0.55453       -5.29372
H          1.21596       -0.06831       -7.62974
H          2.51005       -1.88825       -8.73031
H          4.85570       -2.97629       -4.11824
H          6.17943       -4.15232       -6.10390
H          4.54790       -4.67780       -5.66215
H          4.10459       -4.17175       -7.93016
H          5.39183       -2.92319       -8.00282
H         -1.65163       -0.36335       -0.61244
H         -0.99007        0.89225       -1.66475
H         -1.52038       -0.64694       -2.35472

--Link1--
%chk=JID_9517.chk
%mem=8GB
%nprocshared=4
# B3LYP/6-311++G(d,p) empiricaldispersion=gd3bj scf=xqc pop=npa geom=check

CID_121656663_JID_9517_Energie_neutraal

0 1

--Link1--
%chk=JID_9517.chk
%mem=8GB
%nprocshared=4
# B3LYP/6-311++G(d,p) empiricaldispersion=gd3bj scf=xqc pop=npa geom=check

CID_121656663_JID_9517_Energie_kation

1 2

--Link1--
%chk=JID_9517.chk
%mem=8GB
%nprocshared=4
# B3LYP/6-311++G(d,p) empiricaldispersion=gd3bj scf=xqc pop=npa geom=check

CID_121656663_JID_9517_Energie_anion

-1 2
