%chk=JID_2812.chk
%mem=8GB
%nprocshared=4
# opt freq B3LYP/6-31G(d) empiricaldispersion=gd3bj scf=xqc

CID_91110751_JID_2812_neutraal

0 1
C          0.91579       -0.05365       -0.00551
C          0.55943        0.47682       -1.38483
C          0.99806       -0.44407       -2.52539
C          0.41316       -1.86143       -2.50029
C         -1.12080       -1.94009       -2.50768
C         -1.74799       -1.34247       -3.76335
C         -1.57351       -3.38461       -2.30559
O         -2.11435       -3.73136       -1.25363
C         -1.31029       -4.38830       -3.40049
C          4.56282       -2.19754       -0.19387
C          3.61734       -3.03246        0.64445
O          3.71790       -2.65242        2.00868
H          0.37936       -0.97942        0.22179
H          0.64679        0.68128        0.76001
H          1.98957       -0.24491        0.07489
H         -0.51812        0.66564       -1.43804
H          1.04804        1.44941       -1.52039
H          0.74646        0.03593       -3.47863
H          2.09244       -0.52629       -2.50996
H          0.81115       -2.39951       -3.37026
H          0.80019       -2.39814       -1.62511
H         -1.51460       -1.38749       -1.64550
H         -1.29424       -1.74912       -4.67330
H         -2.82192       -1.55528       -3.80345
H         -1.62437       -0.25509       -3.78450
H         -1.80096       -4.07890       -4.32545
H         -0.23565       -4.50033       -3.55782
H         -1.71927       -5.35959       -3.10630
H          4.33291       -1.13182       -0.09508
H          4.49764       -2.47576       -1.24935
H          5.59570       -2.33107        0.14432
H          2.58129       -2.90206        0.31810
H          3.87207       -4.09329        0.56549
H          3.43288       -1.72521        2.07684

--Link1--
%chk=JID_2812.chk
%mem=8GB
%nprocshared=4
# B3LYP/6-311++G(d,p) empiricaldispersion=gd3bj scf=xqc pop=npa geom=check

CID_91110751_JID_2812_Energie_neutraal

0 1

--Link1--
%chk=JID_2812.chk
%mem=8GB
%nprocshared=4
# B3LYP/6-311++G(d,p) empiricaldispersion=gd3bj scf=xqc pop=npa geom=check

CID_91110751_JID_2812_Energie_kation

1 2

--Link1--
%chk=JID_2812.chk
%mem=8GB
%nprocshared=4
# B3LYP/6-311++G(d,p) empiricaldispersion=gd3bj scf=xqc pop=npa geom=check

CID_91110751_JID_2812_Energie_anion

-1 2
