%chk=JID_1246.chk
%mem=8GB
%nprocshared=4
# opt freq B3LYP/6-31G(d) empiricaldispersion=gd3bj scf=xqc

CID_149378521_JID_1246_neutraal

0 1
C          1.00700       -1.41200       -0.03900
C          0.36174       -0.02502        0.07078
C         -1.09204       -0.05885        0.61919
C         -1.60217       -0.10213       -0.83170
C         -0.23933        0.48516       -1.29428
C         -0.20005        1.96706       -1.63474
C          0.93638        2.61359       -2.36860
C         -0.44175        2.59136       -2.98995
N         -0.69274        1.81051       -4.16807
O          0.07109        0.85763       -4.34902
C          1.28008        0.93256        0.82614
H          1.22422       -1.82009        0.95416
H          0.35768       -2.12766       -0.55447
H          1.94854       -1.35741       -0.59625
H         -1.35853       -0.92303        1.23482
H         -1.39754        0.84926        1.15305
H         -2.48462        0.51267       -1.03115
H         -1.79476       -1.11451       -1.20508
H          0.17294       -0.08918       -2.13389
H         -0.62198        2.51731       -0.79794
H          1.30521        3.56331       -1.99941
H          1.71231        1.97566       -2.77616
H         -1.01205        3.51561       -2.97534
H          0.81831        1.91333        0.97794
H          1.52700        0.53537        1.81690
H          2.21760        1.08447        0.28054

--Link1--
%chk=JID_1246.chk
%mem=8GB
%nprocshared=4
# B3LYP/6-311++G(d,p) empiricaldispersion=gd3bj scf=xqc pop=npa geom=check

CID_149378521_JID_1246_Energie_neutraal

0 1

--Link1--
%chk=JID_1246.chk
%mem=8GB
%nprocshared=4
# B3LYP/6-311++G(d,p) empiricaldispersion=gd3bj scf=xqc pop=npa geom=check

CID_149378521_JID_1246_Energie_kation

1 2

--Link1--
%chk=JID_1246.chk
%mem=8GB
%nprocshared=4
# B3LYP/6-311++G(d,p) empiricaldispersion=gd3bj scf=xqc pop=npa geom=check

CID_149378521_JID_1246_Energie_anion

-1 2
