%chk=JID_7886.chk
%mem=8GB
%nprocshared=4
# opt freq B3LYP/6-31G(d) empiricaldispersion=gd3bj scf=xqc

CID_102345284_JID_7886_neutraal

0 1
C          1.03956       -0.05163       -0.07596
C          0.60596        0.56804       -1.39635
C          1.10824       -0.19283       -2.62620
C          0.65110       -1.65092       -2.73729
C         -0.86583       -1.86077       -2.80808
C         -1.53232       -1.30334       -4.07045
N         -1.11733       -1.95999       -5.29310
C         -0.52379       -1.42731       -6.41181
C         -0.33679       -2.53117       -7.21877
N         -0.83026       -3.64699       -6.60947
N         -1.32412       -3.28484       -5.43488
C         -0.19711       -0.03069       -6.62898
C          1.12905        0.40522       -6.53986
C          1.44283        1.74892       -6.75295
C          0.43497        2.66006       -7.06629
C         -0.88721        2.22990       -7.16798
C         -1.20339        0.88770       -6.95032
H          0.57198       -1.02809        0.08064
H          0.74328        0.59432        0.75679
H          2.12629       -0.17622       -0.03813
H         -0.48556        0.65565       -1.42014
H          0.99762        1.59154       -1.44370
H          0.80303        0.35782       -3.52197
H          2.20558       -0.17847       -2.62292
H          1.12239       -2.09630       -3.62184
H          1.03951       -2.21578       -1.88157
H         -1.06307       -2.93818       -2.73983
H         -1.34388       -1.41427       -1.92915
H         -2.61802       -1.44332       -4.00428
H         -1.35415       -0.22871       -4.16176
H          0.10975       -2.57496       -8.20174
H          1.92478       -0.29610       -6.29818
H          2.47429        2.08397       -6.67816
H          0.68114        3.70507       -7.23797
H         -1.67125        2.93826       -7.42358
H         -2.23703        0.56230       -7.04593

--Link1--
%chk=JID_7886.chk
%mem=8GB
%nprocshared=4
# B3LYP/6-311++G(d,p) empiricaldispersion=gd3bj scf=xqc pop=npa geom=check

CID_102345284_JID_7886_Energie_neutraal

0 1

--Link1--
%chk=JID_7886.chk
%mem=8GB
%nprocshared=4
# B3LYP/6-311++G(d,p) empiricaldispersion=gd3bj scf=xqc pop=npa geom=check

CID_102345284_JID_7886_Energie_kation

1 2

--Link1--
%chk=JID_7886.chk
%mem=8GB
%nprocshared=4
# B3LYP/6-311++G(d,p) empiricaldispersion=gd3bj scf=xqc pop=npa geom=check

CID_102345284_JID_7886_Energie_anion

-1 2
