%chk=JID_3296.chk
%mem=8GB
%nprocshared=4
# opt freq B3LYP/6-31G(d) empiricaldispersion=gd3bj scf=xqc

CID_129995010_JID_3296_neutraal

0 1
C          0.90757        0.02600       -0.02794
C          0.82567        0.54535       -1.45740
C         -0.62015        0.65828       -1.90367
O         -1.39932       -0.28604       -1.97175
C         -0.97767        2.08511       -2.28608
N          0.25356        2.76810       -1.94841
C          1.29947        1.97923       -1.52501
O          2.41214        2.39738       -1.25720
C         -2.17495        2.59728       -1.51270
C         -2.85345        3.67588       -2.29817
O         -3.92325        3.58729       -2.87408
O         -2.14575        4.82115       -2.33158
C          1.61324       -0.31622       -2.43620
H          0.50716       -0.99098        0.04851
H          0.33094        0.65750        0.65831
H          1.94279        0.01231        0.33070
H         -1.09884        2.13772       -3.37323
H          0.40217        3.76192       -2.09503
H         -2.91653        1.80568       -1.35220
H         -1.90999        2.98508       -0.52237
H         -2.71270        5.43933       -2.84286
H          2.67646       -0.34513       -2.17317
H          1.23760       -1.34540       -2.44988
H          1.53895        0.07290       -3.45866

--Link1--
%chk=JID_3296.chk
%mem=8GB
%nprocshared=4
# B3LYP/6-311++G(d,p) empiricaldispersion=gd3bj scf=xqc pop=npa geom=check

CID_129995010_JID_3296_Energie_neutraal

0 1

--Link1--
%chk=JID_3296.chk
%mem=8GB
%nprocshared=4
# B3LYP/6-311++G(d,p) empiricaldispersion=gd3bj scf=xqc pop=npa geom=check

CID_129995010_JID_3296_Energie_kation

1 2

--Link1--
%chk=JID_3296.chk
%mem=8GB
%nprocshared=4
# B3LYP/6-311++G(d,p) empiricaldispersion=gd3bj scf=xqc pop=npa geom=check

CID_129995010_JID_3296_Energie_anion

-1 2
