%chk=JID_8516.chk
%mem=8GB
%nprocshared=4
# opt freq B3LYP/6-31G(d) empiricaldispersion=gd3bj scf=xqc

CID_62128004_JID_8516_neutraal

0 1
C          1.05674       -0.00000        0.08235
C          0.67410        1.46095       -0.10339
C          1.14696        2.11952       -1.37708
C          1.87700        1.45497       -2.36687
C          2.25093        2.11185       -3.54322
C          1.90956        3.45572       -3.76744
C          1.19376        4.12232       -2.76316
C          0.81876        3.46518       -1.58796
C          2.24862        4.13937       -5.09201
C          3.76761        4.09876       -5.33943
C          1.50489        3.47900       -6.28822
C          0.01986        3.37071       -6.12354
C         -0.73999        2.22415       -6.00289
N         -2.03068        2.63317       -5.83993
N         -2.17813        3.96833       -5.88989
C         -0.92913        4.41586       -6.03527
C         -3.18741        1.79837       -5.62979
O          1.90187        5.53524       -5.03876
H          0.64749       -0.62756       -0.71635
H          0.66014       -0.37259        1.03266
H          2.14409       -0.12860        0.10317
H         -0.42041        1.53274       -0.06811
H          1.06785        2.03073        0.74738
H          2.15840        0.41175       -2.25456
H          2.79575        1.54551       -4.29452
H          0.89565        5.16039       -2.89679
H          0.24850        4.01371       -0.84091
H          4.15042        3.07867       -5.44608
H          4.02933        4.65190       -6.24913
H          4.30902        4.58118       -4.51651
H          1.69457        4.06068       -7.20028
H          1.90975        2.47430       -6.46994
H         -0.46825        1.17796       -5.99163
H         -0.75752        5.48433       -6.06634
H         -3.66387        2.09672       -4.69246
H         -3.87092        1.93902       -6.47070
H         -2.87627        0.75240       -5.57163
H          2.15706        5.93817       -5.88468

--Link1--
%chk=JID_8516.chk
%mem=8GB
%nprocshared=4
# B3LYP/6-311++G(d,p) empiricaldispersion=gd3bj scf=xqc pop=npa geom=check

CID_62128004_JID_8516_Energie_neutraal

0 1

--Link1--
%chk=JID_8516.chk
%mem=8GB
%nprocshared=4
# B3LYP/6-311++G(d,p) empiricaldispersion=gd3bj scf=xqc pop=npa geom=check

CID_62128004_JID_8516_Energie_kation

1 2

--Link1--
%chk=JID_8516.chk
%mem=8GB
%nprocshared=4
# B3LYP/6-311++G(d,p) empiricaldispersion=gd3bj scf=xqc pop=npa geom=check

CID_62128004_JID_8516_Energie_anion

-1 2
