%chk=JID_10751.chk
%mem=8GB
%nprocshared=4
# opt freq B3LYP/6-31G(d) empiricaldispersion=gd3bj scf=xqc

CID_81981132_JID_10751_neutraal

0 1
C          1.00219       -0.00770       -0.09968
C          0.56858        1.30239        0.54044
C          0.86899        2.52486       -0.34891
C          0.02542        2.59419       -1.62714
C         -1.45215        2.62759       -1.35769
O         -2.01684        3.21900       -0.45274
O         -2.15988        1.94362       -2.27682
N          0.76619        3.76554        0.42105
C          1.67777        4.22193        1.33440
O          1.35789        5.04704        2.18261
N          2.91994        3.61539        1.26819
C          3.40651        3.14806        2.57595
C          4.62097        2.24687        2.37207
C          5.34035        1.77352        3.61916
C          6.74405        1.43289        3.10299
C          6.83831        2.06469        1.70950
N          5.70575        2.97854        1.69787
C          5.26468        3.44588        0.38209
C          3.98005        4.33010        0.50832
C          3.55461        4.78986       -0.89030
H          0.42716       -0.22168       -1.00514
H          0.84223       -0.83646        0.59761
H          2.06540        0.01314       -0.35930
H         -0.49581        1.25566        0.79682
H          1.09998        1.39663        1.49453
H          1.91131        2.43318       -0.67095
H          0.27422        3.49245       -2.20429
H          0.25039        1.72829       -2.25987
H         -3.09412        2.06921       -2.00579
H         -0.16774        4.12270        0.60731
H          3.64598        4.02099        3.19761
H          2.60159        2.59968        3.07961
H          4.32084        1.37400        1.77188
H          4.85383        0.90738        4.07826
H          5.40298        2.56753        4.37355
H          6.88578        0.34825        3.04267
H          7.50398        1.83736        3.78025
H          6.74473        1.28598        0.94220
H          7.78986        2.58467        1.56484
H          5.05367        2.59141       -0.27529
H          6.06428        4.03328       -0.08403
H          4.22338        5.23208        1.08784
H          2.68926        5.45867       -0.84948
H          4.36808        5.34108       -1.37462
H          3.30058        3.94338       -1.53489

--Link1--
%chk=JID_10751.chk
%mem=8GB
%nprocshared=4
# B3LYP/6-311++G(d,p) empiricaldispersion=gd3bj scf=xqc pop=npa geom=check

CID_81981132_JID_10751_Energie_neutraal

0 1

--Link1--
%chk=JID_10751.chk
%mem=8GB
%nprocshared=4
# B3LYP/6-311++G(d,p) empiricaldispersion=gd3bj scf=xqc pop=npa geom=check

CID_81981132_JID_10751_Energie_kation

1 2

--Link1--
%chk=JID_10751.chk
%mem=8GB
%nprocshared=4
# B3LYP/6-311++G(d,p) empiricaldispersion=gd3bj scf=xqc pop=npa geom=check

CID_81981132_JID_10751_Energie_anion

-1 2
