%chk=JID_8589.chk
%mem=8GB
%nprocshared=4
# opt freq B3LYP/6-31G(d) empiricaldispersion=gd3bj scf=xqc

CID_106802614_JID_8589_neutraal

0 1
C          0.94500        0.04675        0.06921
C          0.57695        1.40914        0.63909
C          1.19626        2.57388       -0.13737
C          0.76776        2.72541       -1.60526
C         -0.71632        2.54372       -1.95659
C         -1.69710        3.52932       -1.32316
N         -1.37259        4.92684       -1.57621
C         -1.24695        5.81144       -0.51731
O         -1.36695        5.49826        0.66637
C         -0.91961        7.20899       -0.86467
C         -0.74841        7.62506       -2.12607
C         -1.00497        6.54736       -3.12742
N         -1.29366        5.30751       -2.89333
N         -0.40196        8.92311       -2.54587
C         -0.37626       10.04157       -1.59274
C          0.38280        9.17247       -3.77129
C          1.83582        8.75939       -3.58443
O          0.99881        3.79374        0.57081
H          0.55990       -0.08625       -0.94547
H          0.52311       -0.74748        0.69333
H          2.03139       -0.08535        0.04419
H         -0.51250        1.51223        0.68944
H          0.91776        1.45999        1.68122
H          2.28423        2.43197       -0.14057
H          1.09929        3.70525       -1.97113
H          1.32045        1.97967       -2.19184
H         -0.80510        2.61710       -3.04856
H         -1.03644        1.52616       -1.70594
H         -2.69893        3.35705       -1.73571
H         -1.77568        3.34021       -0.24861
H         -0.78479        7.86149       -0.01334
H         -0.96629        6.84913       -4.18323
H          0.50772        9.97805       -0.94980
H         -0.35854       11.00711       -2.10977
H         -1.27471       10.03986       -0.96586
H         -0.04851        8.65112       -4.63085
H          0.34496       10.23646       -4.03515
H          1.92317        7.68923       -3.37084
H          2.40940        8.97086       -4.49223
H          2.29834        9.30544       -2.75567
H          0.05462        3.91955        0.78033

--Link1--
%chk=JID_8589.chk
%mem=8GB
%nprocshared=4
# B3LYP/6-311++G(d,p) empiricaldispersion=gd3bj scf=xqc pop=npa geom=check

CID_106802614_JID_8589_Energie_neutraal

0 1

--Link1--
%chk=JID_8589.chk
%mem=8GB
%nprocshared=4
# B3LYP/6-311++G(d,p) empiricaldispersion=gd3bj scf=xqc pop=npa geom=check

CID_106802614_JID_8589_Energie_kation

1 2

--Link1--
%chk=JID_8589.chk
%mem=8GB
%nprocshared=4
# B3LYP/6-311++G(d,p) empiricaldispersion=gd3bj scf=xqc pop=npa geom=check

CID_106802614_JID_8589_Energie_anion

-1 2
