%chk=JID_10621.chk
%mem=8GB
%nprocshared=4
# opt freq B3LYP/6-31G(d) empiricaldispersion=gd3bj scf=xqc

CID_110718472_JID_10621_neutraal

0 1
C          2.54100        1.06400        0.00800
C          1.17304        0.45532        0.11014
C          0.07444        1.24210        0.48380
C         -1.22541        0.70746        0.54607
C         -1.40254       -0.65424        0.23947
C         -0.31080       -1.43830       -0.16237
C          0.96724       -0.88332       -0.23132
S         -3.00411       -1.43011        0.35689
O         -3.69499       -0.92191        1.52122
O         -3.58868       -1.39606       -0.96436
N         -2.65316       -3.04203        0.67033
C         -2.37369       -3.47226        2.04616
C         -3.64360       -3.93045        2.77108
C         -4.22675       -5.17766        2.17142
C         -3.88314       -6.50536        2.37953
N         -4.62362       -7.41987        1.64785
C         -5.52056       -6.79088        0.92320
S         -5.52708       -5.08521        1.05088
C         -2.82238       -7.02532        3.28269
C         -2.35430        1.61550        0.94784
H          2.69208        1.47868       -0.99336
H          2.66872        1.86295        0.74594
H          3.31694        0.31610        0.20243
H          0.23420        2.29309        0.72338
H         -0.44364       -2.48204       -0.43576
H          1.80125       -1.50324       -0.55359
H         -3.11840       -3.69305        0.03669
H         -1.64499       -4.28957        1.99633
H         -1.89222       -2.66294        2.60619
H         -3.39417       -4.13050        3.82061
H         -4.39166       -3.12952        2.78452
H         -6.21541       -7.31520        0.28033
H         -2.83313       -8.11951        3.31086
H         -1.83516       -6.70431        2.93685
H         -2.97220       -6.65981        4.30327
H         -2.63427        1.43615        1.99002
H         -2.06592        2.66871        0.85667
H         -3.22241        1.47572        0.29632

--Link1--
%chk=JID_10621.chk
%mem=8GB
%nprocshared=4
# B3LYP/6-311++G(d,p) empiricaldispersion=gd3bj scf=xqc pop=npa geom=check

CID_110718472_JID_10621_Energie_neutraal

0 1

--Link1--
%chk=JID_10621.chk
%mem=8GB
%nprocshared=4
# B3LYP/6-311++G(d,p) empiricaldispersion=gd3bj scf=xqc pop=npa geom=check

CID_110718472_JID_10621_Energie_kation

1 2

--Link1--
%chk=JID_10621.chk
%mem=8GB
%nprocshared=4
# B3LYP/6-311++G(d,p) empiricaldispersion=gd3bj scf=xqc pop=npa geom=check

CID_110718472_JID_10621_Energie_anion

-1 2
