%chk=JID_5966.chk
%mem=8GB
%nprocshared=4
# opt freq B3LYP/6-31G(d) empiricaldispersion=gd3bj scf=xqc

CID_95439581_JID_5966_neutraal

0 1
C          0.91818        0.00348       -0.05738
C          0.91339        0.59093       -1.45851
O          1.73200       -0.21427       -2.31765
C          2.95761        0.35112       -2.55648
C          3.04689        1.52782       -3.30693
C          4.29214        2.09417       -3.57075
C          5.44725        1.47674       -3.09790
C          5.35953        0.28452       -2.37543
C          4.11392       -0.30591       -2.10994
C          4.04757       -1.61863       -1.36215
C          4.47759       -2.81765       -2.20708
C          5.92822       -3.14287       -1.98808
N          6.38432       -3.72849       -0.93331
O          6.72301       -2.74601       -3.00513
C          8.12135       -3.00984       -2.84976
H          0.61619       -1.04872       -0.07814
H          0.23535        0.55406        0.59594
H          1.92207        0.04242        0.37726
H         -0.10435        0.55903       -1.86220
H          1.21639        1.64459       -1.42442
H          2.14873        2.00009       -3.69420
H          4.36192        3.01128       -4.14926
H          6.42079        1.91488       -3.30259
H          6.27671       -0.18584       -2.02752
H          4.64732       -1.52995       -0.44735
H          3.02339       -1.79912       -1.01846
H          3.90819       -3.70302       -1.89764
H          4.27847       -2.66903       -3.27443
H          5.61471       -3.94288       -0.29100
H          8.51754       -2.47318       -1.98191
H          8.30302       -4.08555       -2.76231
H          8.63418       -2.64470       -3.74378

--Link1--
%chk=JID_5966.chk
%mem=8GB
%nprocshared=4
# B3LYP/6-311++G(d,p) empiricaldispersion=gd3bj scf=xqc pop=npa geom=check

CID_95439581_JID_5966_Energie_neutraal

0 1

--Link1--
%chk=JID_5966.chk
%mem=8GB
%nprocshared=4
# B3LYP/6-311++G(d,p) empiricaldispersion=gd3bj scf=xqc pop=npa geom=check

CID_95439581_JID_5966_Energie_kation

1 2

--Link1--
%chk=JID_5966.chk
%mem=8GB
%nprocshared=4
# B3LYP/6-311++G(d,p) empiricaldispersion=gd3bj scf=xqc pop=npa geom=check

CID_95439581_JID_5966_Energie_anion

-1 2
