%chk=JID_9150.chk
%mem=8GB
%nprocshared=4
# opt freq B3LYP/6-31G(d) empiricaldispersion=gd3bj scf=xqc

CID_116714752_JID_9150_neutraal

0 1
C          1.05684        0.06000       -0.05629
C          0.36502        0.17545       -1.40689
C          0.86950       -0.82844       -2.44831
N          0.52993       -2.19951       -2.08156
C          0.93057       -3.19645       -3.09402
C          2.45699       -3.50041       -3.10349
C          3.28580       -3.31320       -1.81536
C          3.23297       -4.44176       -0.82005
C          2.49492       -4.32778        0.36488
C          2.45574       -5.38328        1.27840
C          3.15889       -6.55872        1.02117
C          3.90683       -6.67926       -0.14749
C          3.94653       -5.62599       -1.06223
C         -0.01242       -4.45298       -3.08146
C          0.19912       -5.40717       -4.32223
C         -0.18667       -6.57913       -3.40074
C          0.31111       -5.72420       -2.22102
O         -1.40913       -4.00157       -3.04762
C         -2.05283       -3.90312       -1.78583
H          0.83034       -0.89214        0.43245
H          0.71899        0.86184        0.60806
H          2.14293        0.14401       -0.16350
H         -0.71776        0.06397       -1.27166
H          0.52969        1.18784       -1.79538
H          0.39733       -0.57957       -3.40624
H          1.95085       -0.70762       -2.57497
H          0.88540       -2.45124       -1.16585
H          0.71988       -2.74309       -4.07492
H          2.66283       -4.49112       -3.51859
H          2.89279       -2.79124       -3.82302
H          4.33886       -3.20785       -2.11470
H          3.05967       -2.36356       -1.31965
H          1.94931       -3.41666        0.59446
H          1.87865       -5.28689        2.19440
H          3.12772       -7.37857        1.73386
H          4.45981       -7.59334       -0.34745
H          4.53577       -5.73530       -1.97011
H         -0.48065       -5.24513       -5.16456
H          1.21669       -5.47632       -4.71781
H          0.35185       -7.51484       -3.57025
H         -1.26219       -6.78834       -3.37429
H          1.36657       -5.90140       -2.02070
H         -0.24242       -5.85509       -1.28849
H         -2.54820       -4.85204       -1.56266
H         -1.35515       -3.66175       -0.98008
H         -2.81147       -3.11838       -1.84442

--Link1--
%chk=JID_9150.chk
%mem=8GB
%nprocshared=4
# B3LYP/6-311++G(d,p) empiricaldispersion=gd3bj scf=xqc pop=npa geom=check

CID_116714752_JID_9150_Energie_neutraal

0 1

--Link1--
%chk=JID_9150.chk
%mem=8GB
%nprocshared=4
# B3LYP/6-311++G(d,p) empiricaldispersion=gd3bj scf=xqc pop=npa geom=check

CID_116714752_JID_9150_Energie_kation

1 2

--Link1--
%chk=JID_9150.chk
%mem=8GB
%nprocshared=4
# B3LYP/6-311++G(d,p) empiricaldispersion=gd3bj scf=xqc pop=npa geom=check

CID_116714752_JID_9150_Energie_anion

-1 2
