%chk=JID_10526.chk
%mem=8GB
%nprocshared=4
# opt freq B3LYP/6-31G(d) empiricaldispersion=gd3bj scf=xqc

CID_135592799_JID_10526_neutraal

0 1
C          0.95923       -0.03825        0.08292
C          0.17803        0.19918       -1.20191
N          0.65832       -0.65985       -2.26774
C          0.40712       -2.01675       -2.34599
N          0.76688       -2.87350       -3.25439
C          1.50317       -2.41315       -4.32073
N          1.92752       -3.12693       -5.29609
C          1.66878       -4.56256       -5.38289
C          2.35590       -5.38032       -4.28887
C          1.43272       -6.57518       -4.09969
C          0.04263       -5.97549       -4.24861
C          0.18625       -4.95366       -5.37435
C          1.78530       -1.02142       -4.29256
C          1.37720       -0.18043       -3.29912
N          1.77149        1.10210       -3.52350
C          2.42402        1.04759       -4.67266
N          2.46271       -0.23250       -5.17197
C          3.04977        2.24584       -5.36950
C          2.35599        3.58588       -5.24143
C          3.63337        3.34867       -4.51231
H          0.85299       -1.07173        0.42833
H          0.59602        0.62333        0.87545
H          2.02635        0.15793       -0.06542
H         -0.88483       -0.00277       -1.02234
H          0.24570        1.25972       -1.47342
H         -0.19007       -2.38573       -1.49443
H          2.08037       -4.88723       -6.34788
H          3.36377       -5.68904       -4.58513
H          2.45331       -4.82884       -3.34827
H          1.57513       -7.06088       -3.13022
H          1.61017       -7.31877       -4.88574
H         -0.25107       -5.47474       -3.31911
H         -0.71367       -6.73324       -4.47363
H         -0.50510       -4.11442       -5.25339
H         -0.06499       -5.43173       -6.32953
H          2.89491       -0.54106       -6.03194
H          3.54683        2.03451       -6.31001
H          2.37154        4.24625       -6.10028
H          1.44273        3.64178       -4.65861
H          3.58945        3.24261       -3.43366
H          4.52645        3.84680       -4.87043

--Link1--
%chk=JID_10526.chk
%mem=8GB
%nprocshared=4
# B3LYP/6-311++G(d,p) empiricaldispersion=gd3bj scf=xqc pop=npa geom=check

CID_135592799_JID_10526_Energie_neutraal

0 1

--Link1--
%chk=JID_10526.chk
%mem=8GB
%nprocshared=4
# B3LYP/6-311++G(d,p) empiricaldispersion=gd3bj scf=xqc pop=npa geom=check

CID_135592799_JID_10526_Energie_kation

1 2

--Link1--
%chk=JID_10526.chk
%mem=8GB
%nprocshared=4
# B3LYP/6-311++G(d,p) empiricaldispersion=gd3bj scf=xqc pop=npa geom=check

CID_135592799_JID_10526_Energie_anion

-1 2
