%chk=JID_2828.chk
%mem=8GB
%nprocshared=4
# opt freq B3LYP/6-31G(d) empiricaldispersion=gd3bj scf=xqc

CID_154398231_JID_2828_neutraal

0 1
C          1.00154       -0.08241        0.05662
C          0.85663        0.92709        1.16333
C          0.38003        2.15427        0.87825
C          1.19444        0.54903        2.60669
C          1.07013       -0.94381        2.98530
C          2.28411       -1.79513        2.62704
C          3.54087       -1.13987        3.14975
O          4.33131       -1.75323        3.86905
C          3.77935        0.30770        2.70787
C          2.54345        1.11062        3.05241
C          2.62889        2.23741        3.78489
O          4.05358        0.40411        1.32186
H          0.67649        0.32160       -0.90900
H          0.38803       -0.96688        0.25097
H          2.04221       -0.38935       -0.06525
H          0.24194        2.90590        1.65029
H          0.11249        2.44520       -0.13367
H          0.41774        1.03800        3.21735
H          0.93383       -1.00191        4.07497
H          0.16513       -1.38168        2.54813
H          2.38919       -1.94506        1.55025
H          2.18492       -2.78581        3.08443
H          4.65719        0.68186        3.24661
H          3.58452        2.62569        4.12740
H          1.74582        2.80689        4.06075
H          3.61496        1.20799        0.99219

--Link1--
%chk=JID_2828.chk
%mem=8GB
%nprocshared=4
# B3LYP/6-311++G(d,p) empiricaldispersion=gd3bj scf=xqc pop=npa geom=check

CID_154398231_JID_2828_Energie_neutraal

0 1

--Link1--
%chk=JID_2828.chk
%mem=8GB
%nprocshared=4
# B3LYP/6-311++G(d,p) empiricaldispersion=gd3bj scf=xqc pop=npa geom=check

CID_154398231_JID_2828_Energie_kation

1 2

--Link1--
%chk=JID_2828.chk
%mem=8GB
%nprocshared=4
# B3LYP/6-311++G(d,p) empiricaldispersion=gd3bj scf=xqc pop=npa geom=check

CID_154398231_JID_2828_Energie_anion

-1 2
