%chk=JID_5507.chk
%mem=8GB
%nprocshared=4
# opt freq B3LYP/6-31G(d) empiricaldispersion=gd3bj scf=xqc

CID_64897541_JID_5507_neutraal

0 1
C          0.93189        0.05900        0.04336
C          0.17797        0.18551       -1.28841
C          1.22598        0.57765       -2.35026
N         -0.53384       -1.02803       -1.74708
C         -1.43723       -0.73168       -2.87973
C         -1.03511       -1.53454       -4.07975
C         -1.67916       -2.85874       -4.40405
C         -1.99827       -1.65097       -5.23732
C         -1.22051       -1.83878       -0.72134
C         -0.84260       -3.35336       -0.81685
C          0.64479       -3.62157       -0.47133
C          1.03726       -3.40464        0.99092
O          0.87743       -4.59039        1.76255
N         -1.79595       -4.13740       -0.00973
C         -1.83095       -5.54629       -0.36695
H          0.25601       -0.03784        0.89717
H          1.52670        0.96045        0.23384
H          1.62496       -0.78660        0.03562
H         -0.53612        1.01087       -1.16969
H          1.93615       -0.24089       -2.52092
H          0.77215        0.83399       -3.31210
H          1.80113        1.45328       -2.02932
H         -2.49320       -0.90591       -2.63773
H         -1.40132        0.32822       -3.16231
H          0.01170       -1.40147       -4.32946
H         -1.05055       -3.62716       -4.83908
H         -2.45055       -3.23726       -3.74343
H         -2.98945       -1.22171       -5.13899
H         -1.59379       -1.60213       -6.24161
H         -1.02431       -1.49217        0.29464
H         -2.31084       -1.73833       -0.80877
H         -0.98380       -3.64552       -1.86337
H          0.90399       -4.64577       -0.76588
H          1.26184       -2.96219       -1.09358
H          2.09677       -3.13689        1.04994
H          0.46848       -2.60589        1.47180
H          0.05557       -5.02173        1.48786
H         -1.65632       -3.99225        0.98712
H         -0.87717       -6.04941       -0.18611
H         -2.59245       -6.05345        0.23340
H         -2.10513       -5.67970       -1.41855

--Link1--
%chk=JID_5507.chk
%mem=8GB
%nprocshared=4
# B3LYP/6-311++G(d,p) empiricaldispersion=gd3bj scf=xqc pop=npa geom=check

CID_64897541_JID_5507_Energie_neutraal

0 1

--Link1--
%chk=JID_5507.chk
%mem=8GB
%nprocshared=4
# B3LYP/6-311++G(d,p) empiricaldispersion=gd3bj scf=xqc pop=npa geom=check

CID_64897541_JID_5507_Energie_kation

1 2

--Link1--
%chk=JID_5507.chk
%mem=8GB
%nprocshared=4
# B3LYP/6-311++G(d,p) empiricaldispersion=gd3bj scf=xqc pop=npa geom=check

CID_64897541_JID_5507_Energie_anion

-1 2
