%chk=JID_9446.chk
%mem=8GB
%nprocshared=4
# opt freq B3LYP/6-31G(d) empiricaldispersion=gd3bj scf=xqc

CID_113735982_JID_9446_neutraal

0 1
C          1.02566       -0.07614       -0.05954
C          0.69963        1.39651       -0.24334
C         -0.42268        1.87986        0.66409
C         -0.30884        3.38959        0.53923
N          1.10206        3.67825        0.26988
C          1.82639        2.41092        0.04916
C          2.67856        1.99806        1.26186
O          3.51535        1.10601        1.26519
O          2.41194        2.66411        2.40206
C          1.47689        5.00041        0.33096
O          0.58411        5.81724        0.59345
N          2.78772        5.43788        0.13096
C          3.80741        4.68457       -0.59928
C          3.53031        4.74743       -2.07208
C          4.41978        5.12958       -2.99847
C          3.07317        6.91525        0.39150
C          2.33678        7.81814       -0.62418
C          2.67066        7.30485        1.83855
C          4.57741        7.29495        0.29477
H          0.17838       -0.69385       -0.37642
H          1.23480       -0.32565        0.98550
H          1.89251       -0.36002       -0.66468
H          0.37965        1.54178       -1.28566
H         -1.40782        1.51279        0.36135
H         -0.24887        1.57108        1.70196
H         -0.65106        3.89279        1.44988
H         -0.89470        3.75930       -0.31072
H          2.45685        2.47617       -0.83668
H          3.01923        2.28055        3.06675
H          4.81155        5.04209       -0.36661
H          3.85085        3.65969       -0.25589
H          2.53137        4.46544       -2.39800
H          4.14700        5.15757       -4.04929
H          5.43015        5.42686       -2.73568
H          1.24877        7.74627       -0.55253
H          2.59173        8.87318       -0.46903
H          2.61226        7.55888       -1.65194
H          3.12005        6.61562        2.56284
H          3.00929        8.31820        2.08577
H          1.59115        7.30202        2.00626
H          5.18530        6.70123        0.98710
H          4.97046        7.16604       -0.71903
H          4.73724        8.34961        0.55164

--Link1--
%chk=JID_9446.chk
%mem=8GB
%nprocshared=4
# B3LYP/6-311++G(d,p) empiricaldispersion=gd3bj scf=xqc pop=npa geom=check

CID_113735982_JID_9446_Energie_neutraal

0 1

--Link1--
%chk=JID_9446.chk
%mem=8GB
%nprocshared=4
# B3LYP/6-311++G(d,p) empiricaldispersion=gd3bj scf=xqc pop=npa geom=check

CID_113735982_JID_9446_Energie_kation

1 2

--Link1--
%chk=JID_9446.chk
%mem=8GB
%nprocshared=4
# B3LYP/6-311++G(d,p) empiricaldispersion=gd3bj scf=xqc pop=npa geom=check

CID_113735982_JID_9446_Energie_anion

-1 2
