%chk=JID_9641.chk
%mem=8GB
%nprocshared=4
# opt freq B3LYP/6-31G(d) empiricaldispersion=gd3bj scf=xqc

CID_86079312_JID_9641_neutraal

0 1
C         -1.18000        2.29600        0.33700
C          0.08826        1.94147       -0.44533
C          1.37648        2.24182        0.31494
C          2.59489        1.54339       -0.30985
C          3.03431        0.25126        0.40141
C          2.30477       -1.06669        0.07920
C          2.41818       -1.49855       -1.37799
C          1.77119       -2.84975       -1.57222
C          0.51195       -3.15682       -0.78059
C         -0.19659       -1.86255       -0.31471
C          0.86159       -1.11842        0.57545
O          0.59810       -0.67059        1.69359
C         -1.45903       -2.21757        0.51524
C         -2.64482       -1.22459        0.46761
C         -2.40363        0.16491        1.07114
C         -2.32369        1.30994        0.04455
O         -0.66004       -1.17404       -1.47256
C          2.08903       -3.65154       -2.81878
O          2.71084       -3.93665       -1.56198
H         -1.49323        3.30263        0.03272
H         -0.99151        2.34687        1.41537
H          0.07759        0.89363       -0.71880
H          0.08988        2.49034       -1.39577
H          1.28498        1.96681        1.37132
H          1.53642        3.32718        0.29045
H          3.43619        2.24395       -0.21834
H          2.45890        1.38228       -1.38427
H          3.01477        0.42010        1.48586
H          4.09326        0.09580        0.15208
H          2.80972       -1.84491        0.67268
H          3.47541       -1.53857       -1.66968
H          1.94288       -0.77042       -2.04316
H          0.77603       -3.77217        0.08941
H         -0.16724       -3.74466       -1.41056
H         -1.19462       -2.42165        1.56028
H         -1.86387       -3.16472        0.13134
H         -3.45408       -1.69283        1.04510
H         -3.03340       -1.14822       -0.55464
H         -1.54832        0.15815        1.74616
H         -3.26136        0.39033        1.72067
H         -3.26947        1.86524        0.09523
H         -2.25128        0.93756       -0.98287
H         -0.06496       -1.31187       -2.22462
H          2.70491       -3.20437       -3.58998
H          1.36485       -4.36674       -3.18992

--Link1--
%chk=JID_9641.chk
%mem=8GB
%nprocshared=4
# B3LYP/6-311++G(d,p) empiricaldispersion=gd3bj scf=xqc pop=npa geom=check

CID_86079312_JID_9641_Energie_neutraal

0 1

--Link1--
%chk=JID_9641.chk
%mem=8GB
%nprocshared=4
# B3LYP/6-311++G(d,p) empiricaldispersion=gd3bj scf=xqc pop=npa geom=check

CID_86079312_JID_9641_Energie_kation

1 2

--Link1--
%chk=JID_9641.chk
%mem=8GB
%nprocshared=4
# B3LYP/6-311++G(d,p) empiricaldispersion=gd3bj scf=xqc pop=npa geom=check

CID_86079312_JID_9641_Energie_anion

-1 2
