%chk=JID_4515.chk
%mem=8GB
%nprocshared=4
# opt freq B3LYP/6-31G(d) empiricaldispersion=gd3bj scf=xqc

CID_61885648_JID_4515_neutraal

0 1
C          0.95641        0.04115       -0.08004
C          0.04676       -1.00000        0.59597
C          0.40728       -1.06596        2.09298
C         -1.41800       -0.54698        0.46652
C          0.25432       -2.41568       -0.01886
N         -0.03282       -2.46239       -1.46243
C          1.13190       -2.86013       -2.24350
C         -1.24186       -3.24556       -1.79258
C         -1.08653       -4.76025       -1.59768
O         -1.08709       -5.27901       -0.47836
N         -0.93230       -5.58987       -2.66910
C         -0.91673       -5.30922       -4.09851
C          0.40672       -5.73422       -4.73549
O          0.63360       -7.12707       -4.53733
H          0.86356        1.01974        0.40482
H          0.70215        0.17614       -1.13683
H          2.00868       -0.25898       -0.02306
H          0.27509       -0.09185        2.57733
H         -0.22548       -1.78825        2.62100
H          1.45082       -1.36868        2.23563
H         -1.71047       -0.41596       -0.58073
H         -2.09803       -1.27784        0.91819
H         -1.57986        0.41226        0.97150
H          1.28872       -2.73213        0.17672
H         -0.36751       -3.12709        0.53780
H          1.48052       -3.86883       -1.99684
H          0.91037       -2.81796       -3.31520
H          1.96242       -2.16560       -2.07409
H         -2.08333       -2.92495       -1.16556
H         -1.55788       -3.00491       -2.80926
H         -0.92402       -6.56595       -2.39608
H         -1.73765       -5.89469       -4.52589
H         -1.10167       -4.25526       -4.30388
H          0.37973       -5.54821       -5.81330
H          1.25287       -5.18395       -4.31250
H          0.88122       -7.24092       -3.60274

--Link1--
%chk=JID_4515.chk
%mem=8GB
%nprocshared=4
# B3LYP/6-311++G(d,p) empiricaldispersion=gd3bj scf=xqc pop=npa geom=check

CID_61885648_JID_4515_Energie_neutraal

0 1

--Link1--
%chk=JID_4515.chk
%mem=8GB
%nprocshared=4
# B3LYP/6-311++G(d,p) empiricaldispersion=gd3bj scf=xqc pop=npa geom=check

CID_61885648_JID_4515_Energie_kation

1 2

--Link1--
%chk=JID_4515.chk
%mem=8GB
%nprocshared=4
# B3LYP/6-311++G(d,p) empiricaldispersion=gd3bj scf=xqc pop=npa geom=check

CID_61885648_JID_4515_Energie_anion

-1 2
