%chk=JID_4968.chk
%mem=8GB
%nprocshared=4
# opt freq B3LYP/6-31G(d) empiricaldispersion=gd3bj scf=xqc

CID_62835242_JID_4968_neutraal

0 1
C          0.92757       -0.05415       -0.04268
C          0.90389        1.17156       -0.94616
N          1.29719        0.84861       -2.32655
C          0.20336        0.40179       -3.18758
C         -0.28769        1.49092       -4.11092
C         -0.57208        1.24353       -5.40251
C         -0.51555        2.86164       -3.53283
C          2.67232        0.80877       -2.57686
O          3.43737        1.09156       -1.63841
C          3.29455        0.52425       -4.01069
C          2.71658       -0.65924       -4.79194
C          3.18095        1.81564       -4.83773
N          4.77374        0.29649       -3.87478
C          5.15085       -0.91838       -3.16316
H          0.24191       -0.82597       -0.40680
H          0.62542        0.21866        0.97313
H          1.92815       -0.49521        0.00635
H         -0.09872        1.61252       -0.94911
H          1.57310        1.93804       -0.53861
H          0.49462       -0.50169       -3.71966
H         -0.63776        0.09510       -2.55233
H         -0.94375        2.02298       -6.06206
H         -0.45052        0.25698       -5.83917
H         -1.22550        2.81072       -2.70142
H          0.42283        3.29466       -3.17285
H         -0.93013        3.55523       -4.27262
H          1.81095       -0.38843       -5.33772
H          3.41077       -1.01160       -5.56588
H          2.49360       -1.50773       -4.13629
H          3.63877        2.66439       -4.31472
H          3.67341        1.71661       -5.81272
H          2.14388        2.09042       -5.03091
H          5.21137        0.29792       -4.79369
H          4.90248       -1.81868       -3.73323
H          6.23578       -0.91893       -3.01606
H          4.69486       -0.99330       -2.17263

--Link1--
%chk=JID_4968.chk
%mem=8GB
%nprocshared=4
# B3LYP/6-311++G(d,p) empiricaldispersion=gd3bj scf=xqc pop=npa geom=check

CID_62835242_JID_4968_Energie_neutraal

0 1

--Link1--
%chk=JID_4968.chk
%mem=8GB
%nprocshared=4
# B3LYP/6-311++G(d,p) empiricaldispersion=gd3bj scf=xqc pop=npa geom=check

CID_62835242_JID_4968_Energie_kation

1 2

--Link1--
%chk=JID_4968.chk
%mem=8GB
%nprocshared=4
# B3LYP/6-311++G(d,p) empiricaldispersion=gd3bj scf=xqc pop=npa geom=check

CID_62835242_JID_4968_Energie_anion

-1 2
