%chk=JID_6557.chk
%mem=8GB
%nprocshared=4
# opt freq B3LYP/6-31G(d) empiricaldispersion=gd3bj scf=xqc

CID_20375716_JID_6557_neutraal

0 1
C          0.40600        1.83900        0.33000
C          1.69146        1.71268       -0.49994
C          2.69176        0.70457        0.08160
C          2.49500       -0.76413       -0.34489
C          1.23359       -1.45200        0.20012
C         -0.00955       -1.21852       -0.68389
C         -1.29814       -1.10493        0.15870
C         -2.30738       -0.09143       -0.40213
C         -2.09601        1.37453        0.02617
C         -0.84433        2.06490       -0.53187
N         -0.13825       -2.30310       -1.65709
C         -0.28843       -2.20157       -3.02206
O         -0.48060       -3.18472       -3.72653
C         -0.20439       -0.80507       -3.66305
O         -1.15915       -0.10615       -3.93568
O          1.06276       -0.41907       -3.86467
H          0.51520        2.68770        1.01822
H          0.27708        0.97537        0.98215
H          1.48842        1.45750       -1.54542
H          2.16899        2.70081       -0.52192
H          2.71383        0.77791        1.17564
H          3.69147        1.00054       -0.26272
H          3.36098       -1.32069        0.03710
H          2.53906       -0.84828       -1.43676
H          1.07344       -1.11010        1.22856
H          1.43009       -2.52992        0.27136
H          0.12439       -0.30301       -1.24998
H         -1.08104       -0.83025        1.19695
H         -1.78564       -2.08769        0.20596
H         -3.30009       -0.38450       -0.03553
H         -2.35823       -0.16087       -1.49377
H         -2.11862        1.45265        1.11985
H         -2.96739        1.93585       -0.33611
H         -1.03101        3.14605       -0.56599
H         -0.69473        1.75642       -1.57196
H         -0.22926       -3.25219       -1.31488
H          0.97960        0.45271       -4.30186

--Link1--
%chk=JID_6557.chk
%mem=8GB
%nprocshared=4
# B3LYP/6-311++G(d,p) empiricaldispersion=gd3bj scf=xqc pop=npa geom=check

CID_20375716_JID_6557_Energie_neutraal

0 1

--Link1--
%chk=JID_6557.chk
%mem=8GB
%nprocshared=4
# B3LYP/6-311++G(d,p) empiricaldispersion=gd3bj scf=xqc pop=npa geom=check

CID_20375716_JID_6557_Energie_kation

1 2

--Link1--
%chk=JID_6557.chk
%mem=8GB
%nprocshared=4
# B3LYP/6-311++G(d,p) empiricaldispersion=gd3bj scf=xqc pop=npa geom=check

CID_20375716_JID_6557_Energie_anion

-1 2
