%chk=JID_6690.chk
%mem=8GB
%nprocshared=4
# opt freq B3LYP/6-31G(d) empiricaldispersion=gd3bj scf=xqc

CID_103071106_JID_6690_neutraal

0 1
C          0.91369       -0.05047        0.00205
C          0.81980       -1.16705       -1.04000
C          1.41033       -2.45958       -0.47301
N         -0.58554       -1.38693       -1.39640
C         -1.03616       -0.53016       -2.49793
C         -1.27131       -1.31703       -3.76998
C         -2.51786       -1.54270       -4.22734
C         -0.05849       -1.85443       -4.50098
N          0.80618       -0.79773       -5.03059
C          2.13451       -1.29853       -5.41383
C          2.29076       -1.14914       -6.93087
C          2.57426       -2.45340       -7.66661
C          1.21253       -3.11663       -7.78078
C          0.25411       -1.95649       -8.02493
C          0.92081       -0.70425       -7.43438
C          0.24894       -0.11464       -6.20365
H          0.35706       -0.30242        0.91190
H          0.51523        0.89229       -0.38806
H          1.95723        0.12437        0.28567
H          1.41574       -0.89818       -1.92082
H          0.86581       -2.79848        0.41520
H          1.37958       -3.26262       -1.21811
H          2.45849       -2.31251       -0.19035
H         -0.75087       -2.35951       -1.64641
H         -1.97672       -0.06738       -2.17411
H         -0.35757        0.30921       -2.69331
H         -2.69728       -2.10571       -5.13779
H         -3.39027       -1.16572       -3.70178
H          0.50212       -2.46475       -3.78129
H         -0.36453       -2.54866       -5.29115
H          2.88673       -0.67336       -4.91754
H          2.32583       -2.32382       -5.07545
H          3.05924       -0.39879       -7.15010
H          3.30387       -3.08666       -7.15315
H          2.96223       -2.23624       -8.66933
H          0.96117       -3.63333       -6.84859
H          1.17861       -3.85554       -8.58706
H         -0.74290       -2.15478       -7.62008
H          0.13357       -1.81581       -9.10648
H          1.01115        0.05750       -8.21797
H         -0.84361       -0.13842       -6.27023
H          0.52880        0.94376       -6.12531

--Link1--
%chk=JID_6690.chk
%mem=8GB
%nprocshared=4
# B3LYP/6-311++G(d,p) empiricaldispersion=gd3bj scf=xqc pop=npa geom=check

CID_103071106_JID_6690_Energie_neutraal

0 1

--Link1--
%chk=JID_6690.chk
%mem=8GB
%nprocshared=4
# B3LYP/6-311++G(d,p) empiricaldispersion=gd3bj scf=xqc pop=npa geom=check

CID_103071106_JID_6690_Energie_kation

1 2

--Link1--
%chk=JID_6690.chk
%mem=8GB
%nprocshared=4
# B3LYP/6-311++G(d,p) empiricaldispersion=gd3bj scf=xqc pop=npa geom=check

CID_103071106_JID_6690_Energie_anion

-1 2
