%chk=JID_8757.chk
%mem=8GB
%nprocshared=4
# opt freq B3LYP/6-31G(d) empiricaldispersion=gd3bj scf=xqc

CID_150951943_JID_8757_neutraal

0 1
C          2.49200        0.00400       -0.01400
C          1.00995       -0.13469       -0.20051
C          0.35530       -1.31343        0.17203
C         -1.02026       -1.45653       -0.03285
C         -1.76314       -0.42441       -0.61725
C         -1.10238        0.74208       -1.01778
C          0.27288        0.88615       -0.81040
C         -3.20128       -0.55282       -0.87100
C         -4.06236       -1.03738        0.03518
C         -5.49227       -1.10809       -0.30941
O         -5.98531       -2.13714       -0.75321
N         -6.24486        0.00540       -0.09174
C         -5.78858        1.31983        0.34588
C         -5.41208        2.28579       -0.78931
O         -4.88660        3.36774       -0.53399
N         -5.77762        1.86746       -2.04590
N         -5.31091        2.59470       -2.93604
N         -4.89041        3.23652       -3.77922
H          2.83329       -0.57564        0.85015
H          3.01640       -0.35016       -0.90679
H          2.76569        1.04867        0.16754
H          0.91288       -2.13328        0.61966
H         -1.49800       -2.39066        0.25371
H         -1.64896        1.55500       -1.49069
H          0.76477        1.80216       -1.13077
H         -3.54729       -0.21738       -1.84587
H         -3.77989       -1.39379        1.01685
H         -7.19521       -0.08320       -0.43186
H         -6.61817        1.77026        0.90005
H         -4.92946        1.21659        1.01464

--Link1--
%chk=JID_8757.chk
%mem=8GB
%nprocshared=4
# B3LYP/6-311++G(d,p) empiricaldispersion=gd3bj scf=xqc pop=npa geom=check

CID_150951943_JID_8757_Energie_neutraal

0 1

--Link1--
%chk=JID_8757.chk
%mem=8GB
%nprocshared=4
# B3LYP/6-311++G(d,p) empiricaldispersion=gd3bj scf=xqc pop=npa geom=check

CID_150951943_JID_8757_Energie_kation

1 2

--Link1--
%chk=JID_8757.chk
%mem=8GB
%nprocshared=4
# B3LYP/6-311++G(d,p) empiricaldispersion=gd3bj scf=xqc pop=npa geom=check

CID_150951943_JID_8757_Energie_anion

-1 2
