%chk=JID_4231.chk
%mem=8GB
%nprocshared=4
# opt freq B3LYP/6-31G(d) empiricaldispersion=gd3bj scf=xqc

CID_115691855_JID_4231_neutraal

0 1
C          2.51300        0.26800        0.00200
C          1.02843        0.33124       -0.03305
C          0.13752       -0.70743        0.17289
S         -1.46612       -0.12453        0.02570
C         -0.86899        1.45194       -0.32144
N          0.43853        1.55687       -0.29950
N         -1.73454        2.45219       -0.59766
C         -1.27260        3.82618       -0.61792
C         -2.11360        4.65703       -1.59171
C         -3.57715        4.86319       -1.18257
C         -3.81414        5.65984        0.10166
S         -3.37683        7.42287       -0.06306
C         -1.80738        7.43731        0.83615
C          0.40759       -2.13912        0.47081
H          2.93745        0.83424       -0.83314
H          2.88457        0.70012        0.93620
H          2.87733       -0.76103       -0.07059
H         -2.70312        2.29551       -0.34946
H         -1.30561        4.24370        0.39347
H         -0.23049        3.88536       -0.95586
H         -1.63073        5.62950       -1.73762
H         -2.10259        4.16466       -2.57307
H         -4.10264        5.35311       -2.01298
H         -4.05907        3.88446       -1.07120
H         -4.88630        5.63165        0.32609
H         -3.30606        5.21152        0.96017
H         -1.95757        7.11301        1.86902
H         -1.07271        6.79303        0.34910
H         -1.41423        8.45752        0.84873
H          0.95885       -2.59916       -0.35608
H          1.01249       -2.23053        1.37884
H         -0.51103       -2.71534        0.62150

--Link1--
%chk=JID_4231.chk
%mem=8GB
%nprocshared=4
# B3LYP/6-311++G(d,p) empiricaldispersion=gd3bj scf=xqc pop=npa geom=check

CID_115691855_JID_4231_Energie_neutraal

0 1

--Link1--
%chk=JID_4231.chk
%mem=8GB
%nprocshared=4
# B3LYP/6-311++G(d,p) empiricaldispersion=gd3bj scf=xqc pop=npa geom=check

CID_115691855_JID_4231_Energie_kation

1 2

--Link1--
%chk=JID_4231.chk
%mem=8GB
%nprocshared=4
# B3LYP/6-311++G(d,p) empiricaldispersion=gd3bj scf=xqc pop=npa geom=check

CID_115691855_JID_4231_Energie_anion

-1 2
