%chk=JID_5138.chk
%mem=8GB
%nprocshared=4
# opt freq B3LYP/6-31G(d) empiricaldispersion=gd3bj scf=xqc

CID_13827562_JID_5138_neutraal

0 1
C          0.97792       -0.07888        0.05737
C          0.50973       -1.50053       -0.20916
C          0.70227       -2.44398        0.98281
C         -0.10602       -2.09139        2.23920
C         -1.60428       -2.13522        2.04268
C         -2.32952       -3.32707        1.87239
C         -3.71544       -3.31393        1.63963
C         -4.38204       -2.08189        1.59624
C         -3.68327       -0.89235        1.78232
C         -2.30729       -0.91951        2.00248
C         -4.49904       -4.59236        1.44475
C         -4.81424       -5.33491        2.74912
C         -5.77909       -4.61512        3.69694
C         -7.17490       -4.43430        3.12004
O         -1.72348       -4.55409        1.92146
H          0.37336        0.40938        0.82625
H          0.89807        0.51961       -0.85587
H          2.02381       -0.06454        0.37994
H         -0.53939       -1.48904       -0.52437
H          1.08227       -1.89816       -1.05609
H          0.45523       -3.46033        0.65401
H          1.76618       -2.46101        1.25117
H          0.16098       -2.78264        3.04868
H          0.19841       -1.10458        2.60909
H         -5.45434       -2.04368        1.42049
H         -4.21010        0.05772        1.75009
H         -1.78247        0.02436        2.13405
H         -5.42177       -4.38539        0.88974
H         -3.92334       -5.25687        0.78713
H         -5.23994       -6.31363        2.49403
H         -3.88424       -5.53766        3.29416
H         -5.86171       -5.20819        4.61596
H         -5.37374       -3.64160        3.99298
H         -7.59631       -5.39373        2.80372
H         -7.84064       -4.00577        3.87613
H         -7.17299       -3.75816        2.26080
H         -0.81371       -4.45310        2.23611

--Link1--
%chk=JID_5138.chk
%mem=8GB
%nprocshared=4
# B3LYP/6-311++G(d,p) empiricaldispersion=gd3bj scf=xqc pop=npa geom=check

CID_13827562_JID_5138_Energie_neutraal

0 1

--Link1--
%chk=JID_5138.chk
%mem=8GB
%nprocshared=4
# B3LYP/6-311++G(d,p) empiricaldispersion=gd3bj scf=xqc pop=npa geom=check

CID_13827562_JID_5138_Energie_kation

1 2

--Link1--
%chk=JID_5138.chk
%mem=8GB
%nprocshared=4
# B3LYP/6-311++G(d,p) empiricaldispersion=gd3bj scf=xqc pop=npa geom=check

CID_13827562_JID_5138_Energie_anion

-1 2
