%chk=JID_8823.chk
%mem=8GB
%nprocshared=4
# opt freq B3LYP/6-31G(d) empiricaldispersion=gd3bj scf=xqc

CID_84161473_JID_8823_neutraal

0 1
C          1.07057        0.01004       -0.07013
C          0.61358        0.13534       -1.52791
C          0.45253        1.65386       -1.85820
N          0.06795        2.01370       -3.23470
C          1.15409        1.76272       -4.17988
C          1.10317        0.37542       -4.78206
C          0.48299        0.22745       -6.16283
C          1.97099        0.13298       -6.00698
C          0.91640       -0.78397       -3.82238
N          1.51866       -0.48628       -2.52086
C          2.57954       -1.31030       -2.18733
C          3.86810       -0.94169       -2.58858
C          4.97117       -1.74940       -2.30478
C          4.80846       -2.95069       -1.61712
C          3.52721       -3.34178       -1.22994
C          2.42241       -2.52830       -1.52140
O          5.96652       -3.64375       -1.39908
C          5.86795       -4.83113       -0.62462
H          1.02969       -1.02578        0.27804
H          0.41519        0.58840        0.59080
H          2.09258        0.37964        0.06747
H         -0.37462       -0.33821       -1.59782
H         -0.31976        2.06508       -1.19632
H          1.37612        2.18844       -1.59693
H         -0.75924        1.49634       -3.52018
H          2.13952        1.94763       -3.73298
H          1.05975        2.50914       -4.97844
H          0.07929        1.10846       -6.65034
H         -0.05972       -0.68211       -6.39620
H          2.57703        0.95053       -6.38237
H          2.43866       -0.83819       -6.13022
H          1.32289       -1.70814       -4.25671
H         -0.15906       -0.97391       -3.70653
H          4.01511       -0.00757       -3.12489
H          5.96187       -1.43530       -2.62179
H          3.34790       -4.27454       -0.70709
H          1.43024       -2.86090       -1.22945
H          5.47579       -4.61993        0.37573
H          5.26253       -5.58589       -1.13679
H          6.87730       -5.23737       -0.50742

--Link1--
%chk=JID_8823.chk
%mem=8GB
%nprocshared=4
# B3LYP/6-311++G(d,p) empiricaldispersion=gd3bj scf=xqc pop=npa geom=check

CID_84161473_JID_8823_Energie_neutraal

0 1

--Link1--
%chk=JID_8823.chk
%mem=8GB
%nprocshared=4
# B3LYP/6-311++G(d,p) empiricaldispersion=gd3bj scf=xqc pop=npa geom=check

CID_84161473_JID_8823_Energie_kation

1 2

--Link1--
%chk=JID_8823.chk
%mem=8GB
%nprocshared=4
# B3LYP/6-311++G(d,p) empiricaldispersion=gd3bj scf=xqc pop=npa geom=check

CID_84161473_JID_8823_Energie_anion

-1 2
