%chk=JID_3898.chk
%mem=8GB
%nprocshared=4
# opt freq B3LYP/6-31G(d) empiricaldispersion=gd3bj scf=xqc

CID_143379734_JID_3898_neutraal

0 1
6	-2.573323	 -0.583472	 1.563257
6	-3.335369	 -1.908707	 1.514862
6	-1.677976	 2.803088	 -0.684405
6	-2.995929	 2.111036	 -1.036376
6	2.900548	 1.612447	 1.932100
6	1.498731	 1.191710	 1.582310
6	1.057656	 0.307463	 0.668021
7	1.735716	 -0.403434	 -0.315065
6	3.031901	 0.004662	 -0.819600
6	1.110125	 -1.583937	 -0.894441
6	0.569779	 -2.558016	 0.158815
7	0.042338	 -1.351412	 -1.885958
6	-0.224254	 -0.155402	 -2.254302
1	-3.219441	 0.241315	 1.884584
1	-2.176058	 -0.324359	 0.576338
1	-1.728333	 -0.631986	 2.260013
1	-3.733811	 -2.177052	 2.499849
1	-4.178885	 -1.855445	 0.817495
1	-2.686032	 -2.727373	 1.184412
1	-1.852515	 3.801910	 -0.268237
1	-1.042353	 2.923276	 -1.569573
1	-1.104562	 2.231946	 0.053210
1	-3.634641	 1.998229	 -0.153376
1	-3.559352	 2.682692	 -1.782841
1	-2.826336	 1.108664	 -1.445861
1	3.661985	 0.947736	 1.519306
1	3.029928	 1.612513	 3.022218
1	3.129277	 2.633699	 1.593183
1	0.712770	 1.661143	 2.170445
1	-0.010738	 0.118568	 0.642019
1	3.877343	 -0.442795	 -0.275111
1	3.119479	 -0.284936	 -1.872566
1	3.124522	 1.092899	 -0.763197
1	1.896420	 -2.106727	 -1.451298
1	-0.253137	 -2.113858	 0.724498
1	0.193902	 -3.458260	 -0.334267
1	1.364186	 -2.830142	 0.859974
1	0.288686	 0.734095	 -1.869376
1	-1.010017	 0.002944	 -2.996125

--Link1--
%chk=JID_3898.chk
%mem=8GB
%nprocshared=4
# B3LYP/6-311++G(d,p) empiricaldispersion=gd3bj scf=xqc pop=npa geom=check

CID_143379734_JID_3898_Energie_neutraal

0 1

--Link1--
%chk=JID_3898.chk
%mem=8GB
%nprocshared=4
# B3LYP/6-311++G(d,p) empiricaldispersion=gd3bj scf=xqc pop=npa geom=check

CID_143379734_JID_3898_Energie_kation

1 2

--Link1--
%chk=JID_3898.chk
%mem=8GB
%nprocshared=4
# B3LYP/6-311++G(d,p) empiricaldispersion=gd3bj scf=xqc pop=npa geom=check

CID_143379734_JID_3898_Energie_anion

-1 2
