%chk=JID_7605.chk
%mem=8GB
%nprocshared=4
# opt freq B3LYP/6-31G(d) empiricaldispersion=gd3bj scf=xqc

CID_110005908_JID_7605_neutraal

0 1
C          2.49200        0.00400       -0.01400
C          1.00305       -0.12249        0.11247
C          0.43443       -1.27711        0.66092
C         -0.95316       -1.41195        0.74792
C         -1.79636       -0.39732        0.27912
C         -1.22644        0.75091       -0.28451
C          0.16117        0.88445       -0.37163
C         -3.29770       -0.54547        0.35889
C         -3.93761       -0.93788       -0.97870
C         -3.61899       -2.35994       -1.43822
C         -5.43264       -0.64513       -0.99996
O         -5.88051        0.24349       -1.73086
N         -6.33601       -1.33723       -0.25920
C         -6.16682       -2.27231        0.85680
C         -6.41340       -1.55478        2.17971
C         -7.12869       -3.45828        0.68885
O         -6.83123       -4.15799       -0.51759
H          2.99811       -0.50586        0.81252
H          2.82595       -0.43498       -0.95915
H          2.79965        1.05456        0.01612
H          1.07003       -2.08151        1.02423
H         -1.36876       -2.31931        1.17981
H         -1.86055        1.54909       -0.66512
H          0.58031        1.78174       -0.82139
H         -3.53631       -1.27070        1.14323
H         -3.71845        0.40610        0.71124
H         -3.52422       -0.27659       -1.75531
H         -3.74603       -3.09939       -0.64422
H         -4.26125       -2.65550       -2.27492
H         -2.58017       -2.42922       -1.77869
H         -7.26973       -0.96210       -0.39462
H         -5.14796       -2.65598        0.84767
H         -7.43559       -1.16381        2.23375
H         -6.26255       -2.23338        3.02551
H         -5.73187       -0.70618        2.29961
H         -7.02909       -4.16368        1.51965
H         -8.17142       -3.12652        0.63979
H         -6.77643       -3.48521       -1.22198

--Link1--
%chk=JID_7605.chk
%mem=8GB
%nprocshared=4
# B3LYP/6-311++G(d,p) empiricaldispersion=gd3bj scf=xqc pop=npa geom=check

CID_110005908_JID_7605_Energie_neutraal

0 1

--Link1--
%chk=JID_7605.chk
%mem=8GB
%nprocshared=4
# B3LYP/6-311++G(d,p) empiricaldispersion=gd3bj scf=xqc pop=npa geom=check

CID_110005908_JID_7605_Energie_kation

1 2

--Link1--
%chk=JID_7605.chk
%mem=8GB
%nprocshared=4
# B3LYP/6-311++G(d,p) empiricaldispersion=gd3bj scf=xqc pop=npa geom=check

CID_110005908_JID_7605_Energie_anion

-1 2
