%chk=JID_4279.chk
%mem=8GB
%nprocshared=4
# opt freq B3LYP/6-31G(d) empiricaldispersion=gd3bj scf=xqc

CID_15814176_JID_4279_neutraal

0 1
C          0.93100       -0.03353       -0.06414
C          0.81111       -1.48185       -0.51777
C          0.78654       -2.52856        0.56187
C          0.91455       -2.34446        1.88732
C          0.87955       -3.41818        2.94623
C         -0.07194       -3.07471        4.10148
C         -1.55064       -2.82651        3.76065
C         -2.36576       -4.01600        3.22002
O         -3.69687       -3.91685        3.77305
C         -3.99973       -5.23147        4.23653
C         -2.65553       -5.77135        4.63656
O         -1.77848       -5.26593        3.62863
C         -2.51158       -4.00515        1.70071
O          0.59786       -4.68682        2.37408
H          0.09635        0.25077        0.58522
H          0.92045        0.63309       -0.93276
H          1.86774        0.13864        0.47607
H         -0.10873       -1.58422       -1.10612
H          1.64420       -1.70864       -1.19361
H          0.65186       -3.54642        0.19463
H          1.07871       -1.34037        2.27077
H          1.89009       -3.49172        3.36580
H         -0.01708       -3.87153        4.85433
H          0.30431       -2.16936        4.59728
H         -1.65064       -1.96361        3.09049
H         -2.02099       -2.49384        4.69748
H         -4.43203       -5.79753        3.40451
H         -4.71624       -5.19604        5.06070
H         -2.61752       -6.86282        4.66953
H         -2.33019       -5.36766        5.60143
H         -3.16580       -4.82205        1.37396
H         -2.96963       -3.07325        1.35272
H         -1.56000       -4.14841        1.18875
H         -0.03676       -5.15509        2.95127

--Link1--
%chk=JID_4279.chk
%mem=8GB
%nprocshared=4
# B3LYP/6-311++G(d,p) empiricaldispersion=gd3bj scf=xqc pop=npa geom=check

CID_15814176_JID_4279_Energie_neutraal

0 1

--Link1--
%chk=JID_4279.chk
%mem=8GB
%nprocshared=4
# B3LYP/6-311++G(d,p) empiricaldispersion=gd3bj scf=xqc pop=npa geom=check

CID_15814176_JID_4279_Energie_kation

1 2

--Link1--
%chk=JID_4279.chk
%mem=8GB
%nprocshared=4
# B3LYP/6-311++G(d,p) empiricaldispersion=gd3bj scf=xqc pop=npa geom=check

CID_15814176_JID_4279_Energie_anion

-1 2
