%chk=JID_10440.chk
%mem=8GB
%nprocshared=4
# opt freq B3LYP/6-31G(d) empiricaldispersion=gd3bj scf=xqc

CID_134101105_JID_10440_neutraal

0 1
C          0.92410       -0.04582        0.04625
C          0.58579       -0.89125        1.24197
C         -0.18076       -0.33375        2.25959
C         -0.44037       -1.04505        3.43194
N          0.07571       -2.29173        3.59948
C          0.72876       -2.93039        2.57553
C          1.12340       -4.28494        2.66517
C          1.77704       -4.93204        1.61445
C          2.05390       -4.24081        0.44653
C          1.67057       -2.90616        0.32466
C          0.99608       -2.22959        1.36601
C          0.02914       -2.92109        4.93659
S         -1.64387       -0.33712        4.56921
C         -0.68470        1.07007        5.20035
C          3.97861        0.87932        2.57238
O          2.91853        0.47501        3.41366
S          3.22188       -0.73387        4.46388
O          3.40872       -1.89834        3.60629
O          4.39444       -0.29678        5.20236
O          1.98755       -0.80662        5.24268
H          0.61400        0.99532        0.18772
H          0.41496       -0.42552       -0.84527
H          2.00593       -0.03521       -0.12253
H         -0.57688        0.67285        2.14200
H          0.93921       -4.87562        3.55676
H          2.08557       -5.96980        1.71858
H          2.57977       -4.73289       -0.36859
H          1.91249       -2.39968       -0.60756
H         -0.76453       -3.67310        4.91734
H          0.99860       -3.37682        5.15619
H         -0.16400       -2.19704        5.72780
H          0.11860        0.72843        5.85393
H         -0.27076        1.67148        4.38720
H         -1.34970        1.70688        5.79055
H          3.59888        1.63716        1.88121
H          4.35451        0.03733        1.98375
H          4.78977        1.32338        3.15608

--Link1--
%chk=JID_10440.chk
%mem=8GB
%nprocshared=4
# B3LYP/6-311++G(d,p) empiricaldispersion=gd3bj scf=xqc pop=npa geom=check

CID_134101105_JID_10440_Energie_neutraal

0 1

--Link1--
%chk=JID_10440.chk
%mem=8GB
%nprocshared=4
# B3LYP/6-311++G(d,p) empiricaldispersion=gd3bj scf=xqc pop=npa geom=check

CID_134101105_JID_10440_Energie_kation

1 2

--Link1--
%chk=JID_10440.chk
%mem=8GB
%nprocshared=4
# B3LYP/6-311++G(d,p) empiricaldispersion=gd3bj scf=xqc pop=npa geom=check

CID_134101105_JID_10440_Energie_anion

-1 2
