%chk=JID_7850.chk
%mem=8GB
%nprocshared=4
# opt freq B3LYP/6-31G(d) empiricaldispersion=gd3bj scf=xqc

CID_113310512_JID_7850_neutraal

0 1
C          0.93629        0.06052        0.04772
C          0.92370       -0.97155        1.16748
C          1.64175       -0.50083        2.44875
C          0.96090        0.72486        3.06513
C          1.69234       -1.63087        3.49391
N          2.53114       -2.73496        3.06480
C          2.71073       -3.98519        3.57200
O          3.69417       -4.58847        3.12693
C          1.73509       -4.65288        4.57688
C          2.36951       -6.01242        5.00929
C          1.64299       -6.70660        6.15972
C          1.52331       -5.81863        7.40054
C          0.90146       -4.47070        7.03212
C          1.58391       -3.77583        5.84848
C          2.86776       -5.64299        8.11244
C          0.35617       -4.87530        3.89148
N          0.35859       -5.84950        2.79949
H          0.33801        0.93969        0.30336
H          0.51162       -0.37174       -0.86420
H          1.95712        0.38588       -0.17568
H         -0.11514       -1.23952        1.39605
H          1.40643       -1.88079        0.78968
H          2.67105       -0.22076        2.18793
H         -0.09297        0.52396        3.28555
H          1.45261        1.01325        4.00058
H          1.01203        1.58890        2.39593
H          2.12737       -1.25738        4.42759
H          0.68344       -1.98689        3.70758
H          3.31866       -2.49347        2.47216
H          2.42607       -6.70383        4.15922
H          3.41320       -5.84832        5.30969
H          2.16929       -7.63477        6.41362
H          0.64041       -7.00545        5.83083
H          0.85238       -6.31939        8.11074
H          0.91751       -3.80030        7.90038
H         -0.15832       -4.62396        6.79418
H          2.57291       -3.41862        6.16363
H          0.99472       -2.87985        5.63881
H          2.74051       -5.06410        9.03360
H          3.28760       -6.61611        8.38856
H          3.60464       -5.12293        7.49363
H         -0.38192       -5.21828        4.62321
H         -0.03293       -3.93682        3.48958
H         -0.53314       -5.82366        2.30759
H          1.07730       -5.61157        2.11411

--Link1--
%chk=JID_7850.chk
%mem=8GB
%nprocshared=4
# B3LYP/6-311++G(d,p) empiricaldispersion=gd3bj scf=xqc pop=npa geom=check

CID_113310512_JID_7850_Energie_neutraal

0 1

--Link1--
%chk=JID_7850.chk
%mem=8GB
%nprocshared=4
# B3LYP/6-311++G(d,p) empiricaldispersion=gd3bj scf=xqc pop=npa geom=check

CID_113310512_JID_7850_Energie_kation

1 2

--Link1--
%chk=JID_7850.chk
%mem=8GB
%nprocshared=4
# B3LYP/6-311++G(d,p) empiricaldispersion=gd3bj scf=xqc pop=npa geom=check

CID_113310512_JID_7850_Energie_anion

-1 2
