%chk=JID_8758.chk
%mem=8GB
%nprocshared=4
# opt freq B3LYP/6-31G(d) empiricaldispersion=gd3bj scf=xqc

CID_84600094_JID_8758_neutraal

0 1
C          1.07296       -0.02524        0.06356
C          0.71904        1.32520        0.60882
C         -0.37199        1.47679        1.44191
C         -0.63978        2.75660        1.89396
N          0.14090        3.80924        1.56580
C          1.17613        3.57046        0.74087
N          1.50237        2.36144        0.24954
C          2.03239        4.73613        0.35847
C         -1.79965        3.02312        2.82514
O         -2.96658        2.26764        2.46937
C         -3.76781        2.83745        1.53437
O         -3.58432        3.91445        0.98751
C         -4.93225        1.95091        1.23394
C         -5.79671        2.31273        0.20469
C         -6.88489        1.48865       -0.06788
C         -7.07687        0.34074        0.69350
C         -6.16654        0.05622        1.69926
N         -5.09689        0.82857        1.98606
H          0.24706       -0.41881       -0.53715
H          1.28561       -0.71996        0.88208
H          1.96105        0.03182       -0.57414
H         -0.99281        0.63476        1.72317
H          1.41224        5.53424       -0.06063
H          2.55433        5.11854        1.24052
H          2.77707        4.44869       -0.38998
H         -1.50941        2.70957        3.83422
H         -2.02720        4.09478        2.87991
H         -5.62722        3.21584       -0.37398
H         -7.57767        1.74208       -0.86594
H         -7.91861       -0.31804        0.50785
H         -6.27961       -0.82825        2.32057

--Link1--
%chk=JID_8758.chk
%mem=8GB
%nprocshared=4
# B3LYP/6-311++G(d,p) empiricaldispersion=gd3bj scf=xqc pop=npa geom=check

CID_84600094_JID_8758_Energie_neutraal

0 1

--Link1--
%chk=JID_8758.chk
%mem=8GB
%nprocshared=4
# B3LYP/6-311++G(d,p) empiricaldispersion=gd3bj scf=xqc pop=npa geom=check

CID_84600094_JID_8758_Energie_kation

1 2

--Link1--
%chk=JID_8758.chk
%mem=8GB
%nprocshared=4
# B3LYP/6-311++G(d,p) empiricaldispersion=gd3bj scf=xqc pop=npa geom=check

CID_84600094_JID_8758_Energie_anion

-1 2
