%chk=JID_5406.chk
%mem=8GB
%nprocshared=4
# opt freq B3LYP/6-31G(d) empiricaldispersion=gd3bj scf=xqc

CID_145861385_JID_5406_neutraal

0 1
C          0.93810       -0.07543       -0.02190
O          0.54996        0.63855       -1.19393
C          0.36802        1.97221       -1.00045
O          0.57317        2.55692        0.05348
N         -0.15156        2.53810       -2.11308
C          0.63420        2.92489       -3.05710
O          1.99503        2.93274       -3.06349
C          2.73290        3.58742       -2.00223
C          3.68012        2.57299       -1.35248
C          4.77152        2.09286       -2.30969
C          5.55216        3.25993       -2.90322
C          4.62502        4.27298       -3.56576
C          3.53604        4.74851       -2.60417
S         -0.17414        3.35358       -4.56364
C          0.93277        4.61504       -5.20495
H          0.11699       -0.08462        0.70153
H          1.83981        0.35250        0.42637
H          1.15613       -1.10730       -0.31093
H          2.04681        4.00877       -1.26188
H          4.14754        3.02676       -0.47008
H          3.12631        1.69544       -1.01207
H          4.32087        1.50403       -3.11799
H          5.45791        1.42503       -1.77669
H          6.27601        2.88600       -3.63596
H          6.12656        3.75492       -2.11050
H          4.16737        3.82121       -4.45358
H          5.20872        5.13297       -3.91304
H          2.86841        5.43120       -3.13840
H          4.00088        5.32309       -1.79324
H          1.00556        5.44938       -4.50351
H          1.92605        4.20493       -5.40008
H          0.53228        4.99779       -6.14775

--Link1--
%chk=JID_5406.chk
%mem=8GB
%nprocshared=4
# B3LYP/6-311++G(d,p) empiricaldispersion=gd3bj scf=xqc pop=npa geom=check

CID_145861385_JID_5406_Energie_neutraal

0 1

--Link1--
%chk=JID_5406.chk
%mem=8GB
%nprocshared=4
# B3LYP/6-311++G(d,p) empiricaldispersion=gd3bj scf=xqc pop=npa geom=check

CID_145861385_JID_5406_Energie_kation

1 2

--Link1--
%chk=JID_5406.chk
%mem=8GB
%nprocshared=4
# B3LYP/6-311++G(d,p) empiricaldispersion=gd3bj scf=xqc pop=npa geom=check

CID_145861385_JID_5406_Energie_anion

-1 2
