%chk=JID_2602.chk
%mem=8GB
%nprocshared=4
# opt freq B3LYP/6-31G(d) empiricaldispersion=gd3bj scf=xqc

CID_21084517_JID_2602_neutraal

0 1
C          0.93266        0.04977       -0.05467
C          0.14366       -0.69807       -1.12122
C          1.05306       -1.11918       -2.28442
C          0.45731       -2.07856       -3.36533
C         -1.04796       -1.79660       -3.69034
C         -1.38160       -0.39269       -4.22215
C         -1.72586       -0.39549       -5.70583
C          1.29626       -1.92205       -4.68407
C          2.82985       -2.03886       -4.60471
C          3.37139       -3.40005       -4.20372
N          0.59340       -3.51821       -2.98479
N         -0.07475       -3.85478       -1.75426
H          0.26655        0.37420        0.75101
H          1.41641        0.93791       -0.47361
H          1.70558       -0.59081        0.38194
H         -0.34541       -1.55223       -0.64951
H         -0.65039       -0.03914       -1.48846
H          1.38876       -0.19502       -2.77491
H          1.96403       -1.57480       -1.87228
H         -1.41472       -2.54953       -4.40186
H         -1.64480       -1.94849       -2.78135
H         -2.25739       -0.01394       -3.68055
H         -0.57223        0.31900       -4.03376
H         -2.59985       -1.02532       -5.90184
H         -1.96258        0.61971       -6.03980
H         -0.89549       -0.76631       -6.31292
H          0.93091       -2.63323       -5.43832
H          1.10303       -0.92720       -5.10369
H          3.22533       -1.80521       -5.60181
H          3.23874       -1.27348       -3.93618
H          2.91264       -4.20035       -4.79220
H          4.45263       -3.43484       -4.37455
H          3.21006       -3.60012       -3.14105
H          0.22826       -4.08087       -3.76192
H         -0.08900       -4.86961       -1.61429
H          0.46166       -3.50580       -0.95384

--Link1--
%chk=JID_2602.chk
%mem=8GB
%nprocshared=4
# B3LYP/6-311++G(d,p) empiricaldispersion=gd3bj scf=xqc pop=npa geom=check

CID_21084517_JID_2602_Energie_neutraal

0 1

--Link1--
%chk=JID_2602.chk
%mem=8GB
%nprocshared=4
# B3LYP/6-311++G(d,p) empiricaldispersion=gd3bj scf=xqc pop=npa geom=check

CID_21084517_JID_2602_Energie_kation

1 2

--Link1--
%chk=JID_2602.chk
%mem=8GB
%nprocshared=4
# B3LYP/6-311++G(d,p) empiricaldispersion=gd3bj scf=xqc pop=npa geom=check

CID_21084517_JID_2602_Energie_anion

-1 2
