%chk=JID_1569.chk
%mem=8GB
%nprocshared=4
# opt freq B3LYP/6-31G(d) empiricaldispersion=gd3bj scf=xqc

CID_130864810_JID_1569_neutraal

0 1
C          0.93676       -0.05765       -0.05174
N          0.43322        0.30353       -1.37259
C         -0.85046       -0.36753       -1.66059
C         -0.71665       -1.76108       -2.26850
C         -1.33173       -2.82453       -1.72960
N          0.13601       -1.89295       -3.38198
C          1.52134       -2.28855       -3.05770
C          2.29387       -1.09325       -2.49040
C          1.45883        0.21015       -2.44227
C          0.86602        0.44136       -3.84678
C          0.13140       -0.79560       -4.37839
H          1.09796       -1.13484        0.06235
H          0.22933        0.25821        0.72350
H          1.87763        0.46149        0.16240
H         -1.46795       -0.39742       -0.75274
H         -1.42591        0.26039       -2.35299
H         -1.21007       -3.80975       -2.16684
H         -1.96993       -2.73517       -0.85835
H          2.01486       -2.65958       -3.96452
H          1.53225       -3.12225       -2.34458
H          3.16964       -0.91987       -3.13107
H          2.71628       -1.34536       -1.51173
H          2.15947        1.03406       -2.25126
H          0.19958        1.31301       -3.85224
H          1.67632        0.69329       -4.54373
H          0.61153       -1.14639       -5.30047
H         -0.89946       -0.54154       -4.65493

--Link1--
%chk=JID_1569.chk
%mem=8GB
%nprocshared=4
# B3LYP/6-311++G(d,p) empiricaldispersion=gd3bj scf=xqc pop=npa geom=check

CID_130864810_JID_1569_Energie_neutraal

0 1

--Link1--
%chk=JID_1569.chk
%mem=8GB
%nprocshared=4
# B3LYP/6-311++G(d,p) empiricaldispersion=gd3bj scf=xqc pop=npa geom=check

CID_130864810_JID_1569_Energie_kation

1 2

--Link1--
%chk=JID_1569.chk
%mem=8GB
%nprocshared=4
# B3LYP/6-311++G(d,p) empiricaldispersion=gd3bj scf=xqc pop=npa geom=check

CID_130864810_JID_1569_Energie_anion

-1 2
