%chk=JID_4760.chk
%mem=8GB
%nprocshared=4
# opt freq B3LYP/6-31G(d) empiricaldispersion=gd3bj scf=xqc

CID_65964440_JID_4760_neutraal

0 1
C          1.69800        0.03400       -0.78800
C          0.88961        0.09098        0.52761
C         -0.06879       -1.10959        0.61685
C         -1.25502       -0.74124       -0.27335
C         -1.26622        0.78460       -0.36359
C         -0.09707        1.27119        0.49164
C          1.90278        0.15271        1.69860
N          1.28265        0.18031        3.02679
C          2.26661        0.07381        4.10885
C          3.07325        1.30392        4.28694
C          2.88358        2.49768        4.94479
N          3.98135        3.30384        4.78160
C          4.78770        2.57627        4.04234
O          4.31064        1.34792        3.70071
H          2.35107       -0.84594       -0.80648
H          1.05762       -0.01826       -1.67426
H          2.33101        0.92228       -0.89460
H          0.39650       -2.04977        0.30245
H         -0.43397       -1.25336        1.64055
H         -2.19267       -1.12875        0.13839
H         -1.13624       -1.17488       -1.27288
H         -2.21502        1.20379       -0.01307
H         -1.13839        1.09943       -1.40561
H         -0.47972        1.50997        1.48977
H          0.34830        2.18586        0.08646
H          2.55761       -0.72581        1.63069
H          2.53253        1.04135        1.56743
H          0.75235        1.04140        3.14292
H          1.71864       -0.11907        5.03878
H          2.91438       -0.79786        3.95754
H          2.02441        2.81507        5.51923
H          5.77263        2.83157        3.67764

--Link1--
%chk=JID_4760.chk
%mem=8GB
%nprocshared=4
# B3LYP/6-311++G(d,p) empiricaldispersion=gd3bj scf=xqc pop=npa geom=check

CID_65964440_JID_4760_Energie_neutraal

0 1

--Link1--
%chk=JID_4760.chk
%mem=8GB
%nprocshared=4
# B3LYP/6-311++G(d,p) empiricaldispersion=gd3bj scf=xqc pop=npa geom=check

CID_65964440_JID_4760_Energie_kation

1 2

--Link1--
%chk=JID_4760.chk
%mem=8GB
%nprocshared=4
# B3LYP/6-311++G(d,p) empiricaldispersion=gd3bj scf=xqc pop=npa geom=check

CID_65964440_JID_4760_Energie_anion

-1 2
