%chk=JID_10873.chk
%mem=8GB
%nprocshared=4
# opt freq B3LYP/6-31G(d) empiricaldispersion=gd3bj scf=xqc

CID_84088780_JID_10873_neutraal

0 1
C          1.07793        0.00947       -0.06194
C          0.80437        0.58695        1.31708
C          1.02004        2.05200        1.34350
C          0.24184        3.16229        1.07943
N          1.00694        4.30226        1.27396
C          2.19041        3.84767        1.63447
O          2.26682        2.48321        1.69971
C          3.42353        4.63726        1.97168
C          3.15303        5.52234        3.21483
C          4.38957        6.37243        3.55536
C          4.73159        7.27185        2.35594
C          5.03176        6.40982        1.11852
C          3.79449        5.55967        0.78193
C          6.21766        5.48073        1.42278
C          5.88189        4.57364        2.61720
C          5.57886        5.44357        3.84770
C          4.64226        3.72800        2.27801
C         -1.14760        3.16187        0.65937
O         -1.83481        2.16689        0.46727
O         -1.68380        4.39121        0.47639
H          0.41334        0.44650       -0.81507
H          0.92022       -1.07368       -0.05787
H          2.11033        0.20163       -0.37395
H         -0.22201        0.35131        1.61854
H          1.46293        0.10375        2.04842
H          2.29404        6.18331        3.03655
H          2.88544        4.89613        4.07662
H          4.18034        6.99243        4.43424
H          5.59925        7.89930        2.59417
H          3.89592        7.95075        2.14613
H          5.27758        7.05628        0.26864
H          3.99048        4.96008       -0.11727
H          2.95479        6.22241        0.53250
H          6.45124        4.87004        0.54200
H          7.11237        6.07551        1.64408
H          6.73096        3.91474        2.83074
H          6.46195        6.03786        4.11272
H          5.35328        4.80610        4.71141
H          4.41905        3.05779        3.11910
H          4.86485        3.08318        1.41713
H         -2.60252        4.20661        0.20065

--Link1--
%chk=JID_10873.chk
%mem=8GB
%nprocshared=4
# B3LYP/6-311++G(d,p) empiricaldispersion=gd3bj scf=xqc pop=npa geom=check

CID_84088780_JID_10873_Energie_neutraal

0 1

--Link1--
%chk=JID_10873.chk
%mem=8GB
%nprocshared=4
# B3LYP/6-311++G(d,p) empiricaldispersion=gd3bj scf=xqc pop=npa geom=check

CID_84088780_JID_10873_Energie_kation

1 2

--Link1--
%chk=JID_10873.chk
%mem=8GB
%nprocshared=4
# B3LYP/6-311++G(d,p) empiricaldispersion=gd3bj scf=xqc pop=npa geom=check

CID_84088780_JID_10873_Energie_anion

-1 2
