%chk=JID_9663.chk
%mem=8GB
%nprocshared=4
# opt freq B3LYP/6-31G(d) empiricaldispersion=gd3bj scf=xqc

CID_142964140_JID_9663_neutraal

0 1
C          0.98645       -0.07509       -0.06464
C          1.51396        1.25793       -0.56149
O          1.77887        1.19288       -1.96942
C          3.00563        0.71192       -2.32655
O          3.85211        0.34812       -1.51855
C          3.19927        0.64504       -3.77830
C          2.41333        1.23664       -4.77348
N          2.96349        0.87156       -5.97917
C          4.07022        0.07126       -5.82367
C          4.25794       -0.06777       -4.44685
C          5.34996       -0.84592       -3.99688
C          6.21374       -1.46619       -4.90849
C          5.99330       -1.32085       -6.27352
C          4.92196       -0.55677       -6.75254
O          7.22392       -2.18670       -4.33041
C          8.12346       -2.85514       -5.20483
S          2.32711        1.29639       -7.48451
C          3.54000        2.54417       -7.97611
C          1.20531        2.10686       -4.63822
H          0.09990       -0.37364       -0.63373
H          0.72255       -0.01684        0.99509
H          1.73039       -0.86708       -0.19601
H          0.75208        2.03082       -0.41601
H          2.40166        1.57411       -0.00181
H          5.52429       -0.97486       -2.93060
H          6.63781       -1.79503       -7.00684
H          4.75855       -0.46360       -7.82246
H          7.60205       -3.60255       -5.81194
H          8.66567       -2.14173       -5.83414
H          8.85915       -3.38148       -4.58907
H          3.59677        3.33779       -7.22582
H          4.53047        2.10198       -8.10827
H          3.23185        2.98788       -8.92660
H          0.32156        1.49355       -4.43544
H          1.33284        2.81793       -3.81560
H          1.00387        2.71250       -5.52531

--Link1--
%chk=JID_9663.chk
%mem=8GB
%nprocshared=4
# B3LYP/6-311++G(d,p) empiricaldispersion=gd3bj scf=xqc pop=npa geom=check

CID_142964140_JID_9663_Energie_neutraal

0 1

--Link1--
%chk=JID_9663.chk
%mem=8GB
%nprocshared=4
# B3LYP/6-311++G(d,p) empiricaldispersion=gd3bj scf=xqc pop=npa geom=check

CID_142964140_JID_9663_Energie_kation

1 2

--Link1--
%chk=JID_9663.chk
%mem=8GB
%nprocshared=4
# B3LYP/6-311++G(d,p) empiricaldispersion=gd3bj scf=xqc pop=npa geom=check

CID_142964140_JID_9663_Energie_anion

-1 2
