%chk=JID_8508.chk
%mem=8GB
%nprocshared=4
# opt freq B3LYP/6-31G(d) empiricaldispersion=gd3bj scf=xqc

CID_143828195_JID_8508_neutraal

0 1
C          1.04650       -0.07780        0.04224
C         -0.33139        0.49160       -0.29720
C         -0.60673        0.49893       -1.79796
O         -1.39517       -0.08184        0.48056
C         -1.48925       -1.44980        0.42777
N         -1.86990       -2.01452       -0.73403
C         -2.04819       -3.34899       -0.71558
C         -1.82301       -4.15593        0.38395
C         -1.47034       -3.53214        1.57747
C         -1.31095       -2.14768        1.60654
C         -1.22573       -4.28986        2.82877
O         -0.59596       -3.79868        3.75648
N         -1.75228       -5.54643        2.92991
O         -2.34206       -3.95279       -1.90973
C         -3.69423       -3.76383       -2.37646
C         -4.68183       -4.58603       -1.55037
C         -4.15775       -2.30568       -2.52844
O         -3.21222       -1.55580       -3.28297
H          1.14687       -1.11697       -0.28862
H          1.21285       -0.06419        1.12458
H          1.83796        0.50546       -0.43923
H         -0.31566        1.54344        0.01569
H         -0.44725       -0.48775       -2.24320
H         -1.64012        0.79645       -2.00300
H          0.06661        1.19533       -2.30890
H         -1.90903       -5.23020        0.28793
H         -1.03959       -1.62685        2.51906
H         -2.43939       -5.92454        2.29558
H         -1.63914       -6.00748        3.82470
H         -3.67946       -4.19296       -3.38643
H         -4.78030       -4.18899       -0.53447
H         -5.67437       -4.58622       -2.01187
H         -4.33829       -5.62192       -1.45913
H         -5.11509       -2.26909       -3.05898
H         -4.30409       -1.81093       -1.56284
H         -2.41133       -1.53616       -2.71773

--Link1--
%chk=JID_8508.chk
%mem=8GB
%nprocshared=4
# B3LYP/6-311++G(d,p) empiricaldispersion=gd3bj scf=xqc pop=npa geom=check

CID_143828195_JID_8508_Energie_neutraal

0 1

--Link1--
%chk=JID_8508.chk
%mem=8GB
%nprocshared=4
# B3LYP/6-311++G(d,p) empiricaldispersion=gd3bj scf=xqc pop=npa geom=check

CID_143828195_JID_8508_Energie_kation

1 2

--Link1--
%chk=JID_8508.chk
%mem=8GB
%nprocshared=4
# B3LYP/6-311++G(d,p) empiricaldispersion=gd3bj scf=xqc pop=npa geom=check

CID_143828195_JID_8508_Energie_anion

-1 2
