%chk=JID_6692.chk
%mem=8GB
%nprocshared=4
# opt freq B3LYP/6-31G(d) empiricaldispersion=gd3bj scf=xqc

CID_143468961_JID_6692_neutraal

0 1
C          1.08865       -0.02764       -0.03710
N          0.69143        1.36313        0.06423
C          1.66795        2.35805        0.24101
O          2.87168        2.10123        0.33872
C          1.19049        3.83272        0.18105
N         -0.14497        4.01284        0.73267
C         -0.89890        5.23695        0.50406
N         -2.33143        4.92927        0.31154
C         -2.29458        3.53881        0.04567
C         -1.01676        3.03396        0.21902
C         -0.67854        1.72008       -0.04796
C         -1.71659        0.86243       -0.41568
C         -3.03595        1.35410       -0.53334
C         -3.33218        2.70564       -0.30467
O         -0.75604        6.17592        1.56023
C         -0.74299        5.61605        2.86456
H          0.88984       -0.38513       -1.05223
H          0.52588       -0.62327        0.68852
H          2.15440       -0.15928        0.16908
H          1.89498        4.43838        0.76141
H          1.23969        4.15401       -0.86713
H         -0.54977        5.73617       -0.40967
H         -2.81213        5.09028        1.18818
H         -1.53539       -0.18626       -0.62969
H         -3.83493        0.67443       -0.82322
H         -4.34134        3.08466       -0.42122
H         -1.60508        4.96468        3.03565
H          0.18855        5.07135        3.04511
H         -0.79065        6.43853        3.58409

--Link1--
%chk=JID_6692.chk
%mem=8GB
%nprocshared=4
# B3LYP/6-311++G(d,p) empiricaldispersion=gd3bj scf=xqc pop=npa geom=check

CID_143468961_JID_6692_Energie_neutraal

0 1

--Link1--
%chk=JID_6692.chk
%mem=8GB
%nprocshared=4
# B3LYP/6-311++G(d,p) empiricaldispersion=gd3bj scf=xqc pop=npa geom=check

CID_143468961_JID_6692_Energie_kation

1 2

--Link1--
%chk=JID_6692.chk
%mem=8GB
%nprocshared=4
# B3LYP/6-311++G(d,p) empiricaldispersion=gd3bj scf=xqc pop=npa geom=check

CID_143468961_JID_6692_Energie_anion

-1 2
