%chk=JID_8651.chk
%mem=8GB
%nprocshared=4
# opt freq B3LYP/6-31G(d) empiricaldispersion=gd3bj scf=xqc

CID_105873436_JID_8651_neutraal

0 1
C          0.97017        0.09524        0.00628
C         -0.19852       -0.23861        0.95910
C         -1.45041        0.56539        0.52804
C         -2.06571        0.03131       -0.76759
C         -2.28460       -1.47893       -0.70602
N         -1.04836       -2.18554       -0.37905
C         -0.50482       -1.75192        0.91286
C          0.23983        0.11692        2.39692
O          1.41120        0.33332        2.69598
N         -0.76671        0.12537        3.34067
C         -0.53456        0.39391        4.75949
C          0.05274        1.79192        5.02006
C         -0.92279        2.90684        4.63890
C         -2.25739        2.74255        5.37123
C         -2.86157        1.34609        5.17888
C         -1.85370        0.24453        5.53349
S         -3.47178        4.05675        4.95484
C         -3.48113        3.98962        3.14400
H          0.74529       -0.14704       -1.03681
H          1.87469       -0.46237        0.27710
H          1.22064        1.16160        0.05337
H         -2.23000        0.52565        1.29747
H         -1.20239        1.62781        0.41212
H         -1.42139        0.27910       -1.61932
H         -3.02385        0.53228       -0.94874
H         -2.64645       -1.82858       -1.67907
H         -3.06155       -1.71991        0.02972
H         -1.22250       -3.19055       -0.35666
H          0.41347       -2.31949        1.10974
H         -1.20723       -2.03719        1.70627
H         -1.64317       -0.31400        3.09489
H          0.17801       -0.36275        5.10920
H          0.29762        1.88139        6.08651
H          0.99262        1.94020        4.47960
H         -1.05932        2.88435        3.55231
H         -0.47138        3.87513        4.88697
H         -2.06431        2.87009        6.44416
H         -3.19310        1.20294        4.14403
H         -3.74830        1.22701        5.81384
H         -2.30464       -0.73482        5.33185
H         -1.64720        0.28231        6.61058
H         -2.54746        4.38660        2.73806
H         -3.64494        2.97309        2.78048
H         -4.29712        4.61748        2.77520

--Link1--
%chk=JID_8651.chk
%mem=8GB
%nprocshared=4
# B3LYP/6-311++G(d,p) empiricaldispersion=gd3bj scf=xqc pop=npa geom=check

CID_105873436_JID_8651_Energie_neutraal

0 1

--Link1--
%chk=JID_8651.chk
%mem=8GB
%nprocshared=4
# B3LYP/6-311++G(d,p) empiricaldispersion=gd3bj scf=xqc pop=npa geom=check

CID_105873436_JID_8651_Energie_kation

1 2

--Link1--
%chk=JID_8651.chk
%mem=8GB
%nprocshared=4
# B3LYP/6-311++G(d,p) empiricaldispersion=gd3bj scf=xqc pop=npa geom=check

CID_105873436_JID_8651_Energie_anion

-1 2
