%chk=JID_6472.chk
%mem=8GB
%nprocshared=4
# opt freq B3LYP/6-31G(d) empiricaldispersion=gd3bj scf=xqc

CID_117112249_JID_6472_neutraal

0 1
C          0.93651       -0.07437        0.02095
C          0.42632       -1.43701        0.51146
C          1.21710       -1.88774        1.74547
C         -1.06718       -1.44565        0.83375
C         -1.68041       -0.37845        1.50731
C         -3.03545       -0.42216        1.83451
C         -3.79743       -1.54395        1.51211
C         -3.23026       -2.64684        0.85562
C         -1.86531       -2.56462        0.51782
C         -4.07137       -3.87593        0.51949
C         -3.51434       -5.25575        0.86839
C         -4.62408       -4.68730        1.69221
C         -4.91300       -3.77210       -0.71138
O         -4.55957       -4.12319       -1.82587
O         -6.14228       -3.26157       -0.48482
O          0.69038       -2.37557       -0.54023
H          0.88518        0.69814        0.79449
H          0.35918        0.26759       -0.84623
H          1.97979       -0.14410       -0.30936
H          1.06953       -1.21220        2.59508
H          0.91903       -2.89637        2.05635
H          2.29011       -1.93653        1.52693
H         -1.11221        0.50181        1.79560
H         -3.49803        0.41645        2.34845
H         -4.85293       -1.56288        1.77763
H         -1.41154       -3.40729       -0.00416
H         -3.74139       -6.07885        0.19900
H         -2.53307       -5.32690        1.32355
H         -4.38977       -4.36701        2.70132
H         -5.61019       -5.12699        1.59227
H         -6.54934       -3.25431       -1.37509
H          1.64685       -2.37240       -0.70889

--Link1--
%chk=JID_6472.chk
%mem=8GB
%nprocshared=4
# B3LYP/6-311++G(d,p) empiricaldispersion=gd3bj scf=xqc pop=npa geom=check

CID_117112249_JID_6472_Energie_neutraal

0 1

--Link1--
%chk=JID_6472.chk
%mem=8GB
%nprocshared=4
# B3LYP/6-311++G(d,p) empiricaldispersion=gd3bj scf=xqc pop=npa geom=check

CID_117112249_JID_6472_Energie_kation

1 2

--Link1--
%chk=JID_6472.chk
%mem=8GB
%nprocshared=4
# B3LYP/6-311++G(d,p) empiricaldispersion=gd3bj scf=xqc pop=npa geom=check

CID_117112249_JID_6472_Energie_anion

-1 2
