%chk=JID_9012.chk
%mem=8GB
%nprocshared=4
# opt freq B3LYP/6-31G(d) empiricaldispersion=gd3bj scf=xqc

CID_82381925_JID_9012_neutraal

0 1
C          1.00164       -0.07334       -0.06796
C          0.79340        1.09312       -0.99341
C         -0.04355        1.09694       -2.14037
C         -0.10506        2.20525       -2.99172
C          0.61047        3.37559       -2.67451
C          1.38879        3.41383       -1.52141
C          1.48010        2.29276       -0.70521
C         -0.92840        1.85819       -4.09432
C         -1.35559        0.55848       -3.93652
N         -0.93280        0.16578       -2.67264
C         -1.40898       -1.01212       -1.97841
C         -2.16318       -0.25730       -4.91769
N         -2.61364       -1.46631       -4.54249
N         -3.32925       -1.91087       -5.57751
C         -3.34473       -1.05358       -6.62800
C         -2.56456        0.03189       -6.25978
C         -2.30102        1.12130       -7.17544
O         -1.42142        1.96766       -7.06815
C         -3.97798       -3.19673       -5.49068
H          1.01635       -1.01539       -0.62370
H          0.21155       -0.10035        0.68822
H          1.96604       -0.00072        0.44691
H          0.56155        4.23978       -3.33051
H          1.94070        4.31571       -1.27170
H          2.11616        2.34810        0.17722
H         -1.13863        2.51885       -4.91976
H         -2.48521       -1.11593       -2.13197
H         -0.85895       -1.88106       -2.34589
H         -1.27333       -0.89738       -0.90366
H         -3.86849       -1.28516       -7.54543
H         -2.95348        1.13410       -8.06599
H         -3.21311       -3.95831       -5.31921
H         -4.68725       -3.16913       -4.65962
H         -4.50601       -3.40185       -6.42520

--Link1--
%chk=JID_9012.chk
%mem=8GB
%nprocshared=4
# B3LYP/6-311++G(d,p) empiricaldispersion=gd3bj scf=xqc pop=npa geom=check

CID_82381925_JID_9012_Energie_neutraal

0 1

--Link1--
%chk=JID_9012.chk
%mem=8GB
%nprocshared=4
# B3LYP/6-311++G(d,p) empiricaldispersion=gd3bj scf=xqc pop=npa geom=check

CID_82381925_JID_9012_Energie_kation

1 2

--Link1--
%chk=JID_9012.chk
%mem=8GB
%nprocshared=4
# B3LYP/6-311++G(d,p) empiricaldispersion=gd3bj scf=xqc pop=npa geom=check

CID_82381925_JID_9012_Energie_anion

-1 2
