%chk=JID_8705.chk
%mem=8GB
%nprocshared=4
# opt freq B3LYP/6-31G(d) empiricaldispersion=gd3bj scf=xqc

CID_106709254_JID_8705_neutraal

0 1
C          0.94005        0.07653        0.02344
C          0.48233       -0.11889       -1.42486
C          1.14996       -1.29466       -2.08354
N          1.86349       -1.22308       -3.19452
N          2.29568       -2.48290       -3.52213
C          1.84478       -3.30375       -2.60611
N          1.12501       -2.60904       -1.67976
C          0.49512       -3.19958       -0.52949
N         -0.98918       -0.19026       -1.46244
C         -1.58841        0.56127       -2.56738
C         -1.39366       -0.01139       -3.97804
C         -1.82248       -1.46950       -4.18516
C         -3.30963       -1.72651       -3.89829
C         -3.74622       -3.21303       -4.00976
C         -5.25949       -3.30110       -3.73719
C         -3.46461       -3.78633       -5.40649
C         -3.03170       -4.01554       -2.98676
N         -2.45122       -4.60581       -2.17285
H          0.57815       -0.71492        0.68702
H          0.56698        1.02831        0.41913
H          2.03374        0.09353        0.09029
H          0.81774        0.78026       -1.96027
H          2.00763       -4.37176       -2.57128
H          1.12383       -3.00694        0.34299
H         -0.49988       -2.77699       -0.38962
H          0.40351       -4.27883       -0.68087
H         -1.29705       -1.15732       -1.50459
H         -2.66302        0.63467       -2.36467
H         -1.22896        1.59779       -2.54754
H         -1.95429        0.61856       -4.68050
H         -0.34090        0.08557       -4.26730
H         -1.60557       -1.72988       -5.22777
H         -1.19935       -2.12464       -3.57068
H         -3.90681       -1.11785       -4.59007
H         -3.54907       -1.37279       -2.88770
H         -5.82840       -2.71779       -4.47028
H         -5.61563       -4.33721       -3.78639
H         -5.50915       -2.91990       -2.73975
H         -3.86987       -4.80062       -5.50753
H         -3.92237       -3.16725       -6.18637
H         -2.39117       -3.85525       -5.61409

--Link1--
%chk=JID_8705.chk
%mem=8GB
%nprocshared=4
# B3LYP/6-311++G(d,p) empiricaldispersion=gd3bj scf=xqc pop=npa geom=check

CID_106709254_JID_8705_Energie_neutraal

0 1

--Link1--
%chk=JID_8705.chk
%mem=8GB
%nprocshared=4
# B3LYP/6-311++G(d,p) empiricaldispersion=gd3bj scf=xqc pop=npa geom=check

CID_106709254_JID_8705_Energie_kation

1 2

--Link1--
%chk=JID_8705.chk
%mem=8GB
%nprocshared=4
# B3LYP/6-311++G(d,p) empiricaldispersion=gd3bj scf=xqc pop=npa geom=check

CID_106709254_JID_8705_Energie_anion

-1 2
