%chk=JID_7979.chk
%mem=8GB
%nprocshared=4
# opt freq B3LYP/6-31G(d) empiricaldispersion=gd3bj scf=xqc

CID_115003137_JID_7979_neutraal

0 1
C          1.34400       -0.22500        0.03600
C          0.90100        0.22378       -1.20393
C         -0.46488        0.23198       -1.48985
C         -1.40076       -0.20298       -0.54502
C         -0.94945       -0.63065        0.70263
C          0.42034       -0.64852        0.98844
O         -2.68940       -0.16447       -0.98894
C         -3.75163       -0.64741       -0.17173
C         -4.62660       -1.58592       -0.99907
C         -3.87562       -2.81801       -1.52108
C         -3.27622       -3.68851       -0.43951
C         -1.89535       -3.90265       -0.38640
C         -1.37990       -4.68689        0.63360
N         -2.13627       -5.27093        1.58671
C         -3.46802       -5.06605        1.51301
C         -4.07652       -4.29681        0.53382
O         -4.79682       -3.60957       -2.27708
H          2.40654       -0.23569        0.26450
H          1.61413        0.56776       -1.94814
H         -0.80572        0.58106       -2.46197
H         -1.61942       -0.96584        1.48531
H          0.76398       -0.99328        1.96090
H         -3.43940       -1.15743        0.74025
H         -4.34649        0.22012        0.13544
H         -5.50112       -1.88792       -0.40967
H         -5.02504       -1.04136       -1.86542
H         -3.09497       -2.50001       -2.22205
H         -1.22282       -3.45546       -1.11251
H         -0.31166       -4.86756        0.71368
H         -4.05476       -5.55161        2.28771
H         -5.15533       -4.17641        0.53075
H         -4.39706       -4.49072       -2.38148

--Link1--
%chk=JID_7979.chk
%mem=8GB
%nprocshared=4
# B3LYP/6-311++G(d,p) empiricaldispersion=gd3bj scf=xqc pop=npa geom=check

CID_115003137_JID_7979_Energie_neutraal

0 1

--Link1--
%chk=JID_7979.chk
%mem=8GB
%nprocshared=4
# B3LYP/6-311++G(d,p) empiricaldispersion=gd3bj scf=xqc pop=npa geom=check

CID_115003137_JID_7979_Energie_kation

1 2

--Link1--
%chk=JID_7979.chk
%mem=8GB
%nprocshared=4
# B3LYP/6-311++G(d,p) empiricaldispersion=gd3bj scf=xqc pop=npa geom=check

CID_115003137_JID_7979_Energie_anion

-1 2
