%chk=JID_1171.chk
%mem=8GB
%nprocshared=4
# opt freq B3LYP/6-31G(d) empiricaldispersion=gd3bj scf=xqc

CID_154673379_JID_1171_neutraal

0 1
C          0.91686        0.01911       -0.05218
C          0.25608       -1.30282        0.26480
C         -0.59942       -1.49143        1.30824
C         -1.07016       -0.35164        2.21011
C         -2.55119       -0.45232        2.58708
C         -2.90376       -1.84746        3.08715
C         -2.53102       -2.88024        2.03255
N         -1.11085       -2.75851        1.66679
C         -0.23074       -3.68372        2.39536
C          0.57167       -2.41170       -0.64605
C          1.39911       -2.38960       -1.69991
H          0.80172        0.77120        0.73061
H          0.51208        0.43742       -0.97996
H          1.99988       -0.10667       -0.16528
H         -0.46523       -0.37190        3.12564
H         -0.93066        0.63085        1.75241
H         -3.16837       -0.21008        1.71252
H         -2.78606        0.28951        3.35884
H         -3.97572       -1.90635        3.30503
H         -2.36840       -2.05112        4.02240
H         -3.13756       -2.72852        1.13089
H         -2.76074       -3.88894        2.39546
H         -0.21140       -3.43439        3.46173
H         -0.58395       -4.71406        2.28178
H          0.79653       -3.64687        2.01786
H          0.05270       -3.34937       -0.45013
H          1.53271       -3.28347       -2.30151
H          1.95521       -1.51047       -2.00179

--Link1--
%chk=JID_1171.chk
%mem=8GB
%nprocshared=4
# B3LYP/6-311++G(d,p) empiricaldispersion=gd3bj scf=xqc pop=npa geom=check

CID_154673379_JID_1171_Energie_neutraal

0 1

--Link1--
%chk=JID_1171.chk
%mem=8GB
%nprocshared=4
# B3LYP/6-311++G(d,p) empiricaldispersion=gd3bj scf=xqc pop=npa geom=check

CID_154673379_JID_1171_Energie_kation

1 2

--Link1--
%chk=JID_1171.chk
%mem=8GB
%nprocshared=4
# B3LYP/6-311++G(d,p) empiricaldispersion=gd3bj scf=xqc pop=npa geom=check

CID_154673379_JID_1171_Energie_anion

-1 2
