%chk=JID_9176.chk
%mem=8GB
%nprocshared=4
# opt freq B3LYP/6-31G(d) empiricaldispersion=gd3bj scf=xqc

CID_83008303_JID_9176_neutraal

0 1
C          2.49200        0.00400       -0.01400
C          1.00275        0.10149        0.13397
C          0.19983       -1.03786       -0.00954
C         -1.18717       -0.96431        0.16008
C         -1.77605        0.25639        0.49687
C         -0.98127        1.39325        0.65642
C          0.40083        1.31596        0.48005
O         -1.85798       -2.15758       -0.01645
C         -3.23211       -2.12435       -0.07275
C         -3.94583       -2.41744        1.08785
C         -5.34081       -2.46166        1.05520
C         -6.02947       -2.19644       -0.14227
C         -5.29000       -1.93603       -1.30750
C         -3.89093       -1.86062       -1.28226
N         -3.18064       -1.74030       -2.49019
O         -7.39902       -2.20583       -0.09230
C         -8.10923       -1.83297       -1.26551
O         -5.92470       -2.72327        2.26950
C         -6.97630       -3.68413        2.22626
H          2.94744       -0.25342        0.94715
H          2.76148       -0.76039       -0.75040
H          2.91327        0.95285       -0.36244
H          0.65285       -1.99603       -0.25566
H         -2.84690        0.34814        0.65132
H         -1.44104        2.34049        0.92710
H          1.00556        2.20949        0.61904
H         -3.41642       -2.62188        2.01385
H         -5.78573       -1.78898       -2.26077
H         -2.21578       -1.45061       -2.34028
H         -3.64840       -1.18000       -3.19403
H         -7.84488       -0.81965       -1.58548
H         -7.94850       -2.55886       -2.06912
H         -9.17664       -1.83681       -1.02442
H         -7.94263       -3.18402        2.11407
H         -6.83010       -4.43840        1.44466
H         -6.98738       -4.20498        3.18890

--Link1--
%chk=JID_9176.chk
%mem=8GB
%nprocshared=4
# B3LYP/6-311++G(d,p) empiricaldispersion=gd3bj scf=xqc pop=npa geom=check

CID_83008303_JID_9176_Energie_neutraal

0 1

--Link1--
%chk=JID_9176.chk
%mem=8GB
%nprocshared=4
# B3LYP/6-311++G(d,p) empiricaldispersion=gd3bj scf=xqc pop=npa geom=check

CID_83008303_JID_9176_Energie_kation

1 2

--Link1--
%chk=JID_9176.chk
%mem=8GB
%nprocshared=4
# B3LYP/6-311++G(d,p) empiricaldispersion=gd3bj scf=xqc pop=npa geom=check

CID_83008303_JID_9176_Energie_anion

-1 2
