%chk=JID_7107.chk
%mem=8GB
%nprocshared=4
# opt freq B3LYP/6-31G(d) empiricaldispersion=gd3bj scf=xqc

CID_139923273_JID_7107_neutraal

0 1
C          1.04344        0.08690        0.02371
C          1.03130        0.58982        1.46302
C          0.76407        2.10126        1.57292
C         -0.59573        2.55547        0.99477
O         -1.68226        1.85564        1.59269
C         -2.77398        1.40331        0.78655
C         -2.83499        1.89320       -0.65870
C         -2.76711       -0.13457        0.85153
C         -3.24662       -0.66628        2.21141
C         -4.76958       -0.74206        2.31941
O         -5.24980       -1.87549        1.57892
C         -5.82349       -1.62503        0.38859
O         -6.00403       -0.55035       -0.15697
O         -6.17235       -2.78409       -0.18975
O          0.98971        2.60638        2.89704
C          0.25464        1.99872        3.95383
C         -0.33192        3.09685        4.81917
H          1.80934        0.60622       -0.56124
H          0.08152        0.22927       -0.47312
H          1.27360       -0.98318        0.00367
H          0.29239        0.01685        2.03304
H          1.99947        0.36650        1.92860
H          1.52949        2.60705        0.97015
H         -0.74520        3.62063        1.20177
H         -0.55325        2.42349       -0.08705
H         -3.67764        1.77637        1.28164
H         -2.03439        1.46092       -1.26797
H         -3.78557        1.60532       -1.12001
H         -2.74944        2.98346       -0.70924
H         -3.36112       -0.56525        0.04137
H         -1.74227       -0.49163        0.70746
H         -2.83489       -1.67354        2.34950
H         -2.85293       -0.04016        3.02022
H         -5.04622       -0.91920        3.36429
H         -5.25558        0.19140        2.01517
H         -6.55256       -2.50997       -1.04654
H         -0.54309        1.33844        3.60891
H          0.95329        1.39685        4.54436
H         -1.01552        3.72049        4.23335
H         -0.87926        2.67552        5.66695
H          0.45615        3.75569        5.19809

--Link1--
%chk=JID_7107.chk
%mem=8GB
%nprocshared=4
# B3LYP/6-311++G(d,p) empiricaldispersion=gd3bj scf=xqc pop=npa geom=check

CID_139923273_JID_7107_Energie_neutraal

0 1

--Link1--
%chk=JID_7107.chk
%mem=8GB
%nprocshared=4
# B3LYP/6-311++G(d,p) empiricaldispersion=gd3bj scf=xqc pop=npa geom=check

CID_139923273_JID_7107_Energie_kation

1 2

--Link1--
%chk=JID_7107.chk
%mem=8GB
%nprocshared=4
# B3LYP/6-311++G(d,p) empiricaldispersion=gd3bj scf=xqc pop=npa geom=check

CID_139923273_JID_7107_Energie_anion

-1 2
