%chk=JID_6563.chk
%mem=8GB
%nprocshared=4
# opt freq B3LYP/6-31G(d) empiricaldispersion=gd3bj scf=xqc

CID_107389188_JID_6563_neutraal

0 1
C          0.94454        0.06277       -0.05463
C          0.14025        1.35109       -0.20532
C          0.68287        2.38345       -1.20960
N          1.16960        1.83018       -2.47716
C          1.55676        2.89635       -3.39490
C         -1.36984        1.16469       -0.32327
O         -2.12100        1.72836        0.47997
N         -1.96275        0.41365       -1.28436
C         -1.40426       -0.27275       -2.43471
C         -1.86081       -1.72667       -2.53133
C         -1.57545       -2.54971       -1.29664
O         -1.58207       -3.88828       -1.79206
C         -1.05582       -3.77785       -3.12215
O         -1.14118       -2.41394       -3.56438
C          0.41160       -4.19349       -3.11790
C         -1.87888       -4.65980       -4.04945
H          1.07608       -0.48991       -0.98558
H          0.46063       -0.61030        0.66138
H          1.94687        0.28873        0.32620
H          0.24577        1.84130        0.77674
H         -0.09833        3.12833       -1.40886
H          1.51432        2.91648       -0.72943
H          1.98544        1.24313       -2.30076
H          2.35992        3.51274       -2.97799
H          1.91874        2.45766       -4.32978
H          0.70328        3.53648       -3.64064
H         -2.97312        0.48945       -1.23985
H         -1.73606        0.27211       -3.32612
H         -0.31954       -0.22500       -2.44696
H         -2.92816       -1.77956       -2.78019
H         -2.32910       -2.43087       -0.51347
H         -0.58558       -2.35107       -0.87466
H          0.85037       -4.11482       -4.11793
H          0.99645       -3.54115       -2.45897
H          0.53336       -5.21720       -2.74894
H         -2.92897       -4.34606       -4.04366
H         -1.52534       -4.58866       -5.08331
H         -1.85191       -5.70686       -3.73015

--Link1--
%chk=JID_6563.chk
%mem=8GB
%nprocshared=4
# B3LYP/6-311++G(d,p) empiricaldispersion=gd3bj scf=xqc pop=npa geom=check

CID_107389188_JID_6563_Energie_neutraal

0 1

--Link1--
%chk=JID_6563.chk
%mem=8GB
%nprocshared=4
# B3LYP/6-311++G(d,p) empiricaldispersion=gd3bj scf=xqc pop=npa geom=check

CID_107389188_JID_6563_Energie_kation

1 2

--Link1--
%chk=JID_6563.chk
%mem=8GB
%nprocshared=4
# B3LYP/6-311++G(d,p) empiricaldispersion=gd3bj scf=xqc pop=npa geom=check

CID_107389188_JID_6563_Energie_anion

-1 2
