%chk=JID_9091.chk
%mem=8GB
%nprocshared=4
# opt freq B3LYP/6-31G(d) empiricaldispersion=gd3bj scf=xqc

CID_145198385_JID_9091_neutraal

0 1
C          1.05810       -0.05538       -0.05965
C          1.32775        0.95028        1.03653
C         -3.02113        0.17968        0.93700
C         -2.81498        0.57082       -0.50813
C         -3.18607       -0.27974       -1.48449
C         -3.11600       -0.01506       -2.91109
C         -3.29955       -0.90598       -3.91221
N         -3.51179       -2.24342       -3.66298
N         -3.27746       -0.48389       -5.23852
C         -4.01362       -1.21319       -6.29385
C         -4.44312       -0.26565       -7.43763
N         -3.42015        0.64432       -7.98396
C         -2.60207        1.23436       -6.91490
C         -2.14265        0.28674       -5.78444
C         -2.68747        0.12921       -9.14564
C         -1.75399       -1.04201       -8.86203
O         -2.12611       -2.20633       -8.75664
N         -0.43219       -0.72269       -8.71926
N         -2.23239        1.80856       -0.71210
H          0.66203        0.44227       -0.94977
H          0.32866       -0.80012        0.27235
H          1.97903       -0.57614       -0.33833
H          2.05310        1.69788        0.70197
H          0.40669        1.46736        1.32067
H          1.73027        0.45258        1.92379
H         -3.49838       -0.80032        1.04247
H         -3.65825        0.91527        1.43958
H         -2.05969        0.13925        1.45988
H         -3.63173       -1.23056       -1.20227
H         -2.98181        1.02858       -3.18030
H         -3.16135       -2.79798       -4.43655
H         -3.09622       -2.54425       -2.78892
H         -3.39304       -2.03086       -6.67034
H         -4.92424       -1.66255       -5.87797
H         -5.24259        0.37543       -7.04151
H         -4.91450       -0.84791       -8.23890
H         -3.21194        2.02201       -6.45197
H         -1.73248        1.75368       -7.33585
H         -1.65865        0.89354       -5.01084
H         -1.38324       -0.41315       -6.14834
H         -3.38938       -0.18774       -9.92694
H         -2.11082        0.94604       -9.59742
H         -0.06426        0.19248       -8.93738
H          0.21614       -1.48812       -8.58548
H         -1.65350        2.11943        0.06362
H         -1.75197        1.88727       -1.60370

--Link1--
%chk=JID_9091.chk
%mem=8GB
%nprocshared=4
# B3LYP/6-311++G(d,p) empiricaldispersion=gd3bj scf=xqc pop=npa geom=check

CID_145198385_JID_9091_Energie_neutraal

0 1

--Link1--
%chk=JID_9091.chk
%mem=8GB
%nprocshared=4
# B3LYP/6-311++G(d,p) empiricaldispersion=gd3bj scf=xqc pop=npa geom=check

CID_145198385_JID_9091_Energie_kation

1 2

--Link1--
%chk=JID_9091.chk
%mem=8GB
%nprocshared=4
# B3LYP/6-311++G(d,p) empiricaldispersion=gd3bj scf=xqc pop=npa geom=check

CID_145198385_JID_9091_Energie_anion

-1 2
