%chk=JID_1702.chk
%mem=8GB
%nprocshared=4
# opt freq B3LYP/6-31G(d) empiricaldispersion=gd3bj scf=xqc

CID_152494628_JID_1702_neutraal

0 1
C          1.06079        0.07651        0.02121
C          1.22355       -0.16860       -1.47154
C          1.71711       -1.57510       -1.82511
C          0.71009       -2.69722       -1.60277
C         -0.15650       -3.14343       -2.55381
C         -1.07008       -4.34403       -2.33033
C         -2.29962       -4.02953       -1.48773
C         -0.25111       -2.56259       -3.96330
C         -1.63140       -2.03226       -4.37626
C         -2.05849       -0.79489       -3.60283
C          0.82365       -3.32605       -0.22835
H          0.21071       -0.47850        0.42596
H          0.87255        1.13911        0.20677
H          1.96293       -0.20809        0.57142
H          0.27829        0.04641       -1.97946
H          1.95509        0.55345       -1.85495
H          2.05555       -1.57468       -2.86700
H          2.63451       -1.78736       -1.26040
H         -1.39771       -4.74953       -3.29588
H         -0.50847       -5.16686       -1.87345
H         -2.93525       -3.27941       -1.96664
H         -2.90016       -4.93500       -1.35219
H         -2.02862       -3.65786       -0.49499
H          0.46972       -1.75812       -4.12930
H          0.03524       -3.35682       -4.66584
H         -1.59712       -1.77683       -5.44271
H         -2.39542       -2.81030       -4.27544
H         -1.35558        0.02751       -3.76785
H         -3.04549       -0.46329       -3.94091
H         -2.11884       -0.98875       -2.52823
H          1.87315       -3.41636        0.07177
H          0.30567       -2.71516        0.51548
H          0.40962       -4.33446       -0.17034

--Link1--
%chk=JID_1702.chk
%mem=8GB
%nprocshared=4
# B3LYP/6-311++G(d,p) empiricaldispersion=gd3bj scf=xqc pop=npa geom=check

CID_152494628_JID_1702_Energie_neutraal

0 1

--Link1--
%chk=JID_1702.chk
%mem=8GB
%nprocshared=4
# B3LYP/6-311++G(d,p) empiricaldispersion=gd3bj scf=xqc pop=npa geom=check

CID_152494628_JID_1702_Energie_kation

1 2

--Link1--
%chk=JID_1702.chk
%mem=8GB
%nprocshared=4
# B3LYP/6-311++G(d,p) empiricaldispersion=gd3bj scf=xqc pop=npa geom=check

CID_152494628_JID_1702_Energie_anion

-1 2
