%chk=JID_5646.chk
%mem=8GB
%nprocshared=4
# opt freq B3LYP/6-31G(d) empiricaldispersion=gd3bj scf=xqc

CID_10965792_JID_5646_neutraal

0 1
C          1.05405       -0.02882       -0.07905
C          0.96949       -0.77572       -1.40164
C          1.30459       -2.26470       -1.28489
C          0.43860       -3.05842       -0.30219
C         -1.06670       -3.02706       -0.58329
C         -1.49632       -3.63081       -1.92487
C         -1.10855       -5.09799       -2.14353
C         -1.55480       -6.06907       -1.04526
C         -3.06247       -6.10761       -0.77769
C         -3.92728       -6.58934       -1.95015
C         -3.62971       -8.01043       -2.43603
C         -3.84310       -9.01315       -1.38152
C         -4.00163       -9.81701       -0.50247
C         -4.19059      -10.78060        0.58325
O         -4.71688      -11.99550        0.06880
H          0.28007       -0.35852        0.62004
H          0.91271        1.04407       -0.24501
H          2.03176       -0.17232        0.39162
H         -0.02820       -0.64213       -1.83388
H          1.67432       -0.31854       -2.10675
H          1.24104       -2.71877       -2.28072
H          2.35249       -2.36492       -0.97452
H          0.79045       -4.09647       -0.28966
H          0.60891       -2.68230        0.71373
H         -1.58021       -3.55022        0.23180
H         -1.42868       -1.99346       -0.53539
H         -2.58465       -3.53007       -2.01557
H         -1.07785       -3.03445       -2.74445
H         -1.51563       -5.42560       -3.10760
H         -0.01887       -5.16955       -2.24541
H         -1.19885       -7.07362       -1.30130
H         -1.04579       -5.81339       -0.10848
H         -3.24029       -6.75137        0.09227
H         -3.40977       -5.11234       -0.47747
H         -4.97920       -6.53138       -1.64071
H         -3.82019       -5.89726       -2.79354
H         -2.60598       -8.07860       -2.81874
H         -4.29060       -8.23631       -3.28146
H         -3.24200      -11.00287        1.08041
H         -4.88608      -10.39444        1.33457
H         -5.45925      -11.75130       -0.50944

--Link1--
%chk=JID_5646.chk
%mem=8GB
%nprocshared=4
# B3LYP/6-311++G(d,p) empiricaldispersion=gd3bj scf=xqc pop=npa geom=check

CID_10965792_JID_5646_Energie_neutraal

0 1

--Link1--
%chk=JID_5646.chk
%mem=8GB
%nprocshared=4
# B3LYP/6-311++G(d,p) empiricaldispersion=gd3bj scf=xqc pop=npa geom=check

CID_10965792_JID_5646_Energie_kation

1 2

--Link1--
%chk=JID_5646.chk
%mem=8GB
%nprocshared=4
# B3LYP/6-311++G(d,p) empiricaldispersion=gd3bj scf=xqc pop=npa geom=check

CID_10965792_JID_5646_Energie_anion

-1 2
