%chk=JID_8223.chk
%mem=8GB
%nprocshared=4
# opt freq B3LYP/6-31G(d) empiricaldispersion=gd3bj scf=xqc

CID_103430443_JID_8223_neutraal

0 1
C          0.94825        0.06682       -0.05345
C          1.20507       -0.50477       -1.45009
C          2.20970       -1.66995       -1.36515
C         -0.13287       -1.12147       -1.99195
C         -1.36891       -0.20421       -2.03924
C         -1.31745        0.86656       -3.09837
C         -1.43078        0.53023       -4.45471
C         -1.35083        1.51722       -5.43780
C         -1.15958        2.84881       -5.07563
C         -1.05443        3.19572       -3.73044
C         -1.13663        2.21057       -2.74557
N          1.69630        0.48848       -2.42863
C          2.70005        1.38136       -2.55800
O          2.88160        1.80021       -3.71596
C          3.58386        1.98680       -1.43876
C          2.79943        2.92602       -0.53084
C          4.44043        0.99234       -0.67523
O          4.54499        2.84378       -2.11547
H          0.37549       -0.63869        0.56029
H          0.38458        1.00356       -0.09716
H          1.87086        0.25785        0.49357
H          1.85155       -2.45514       -0.68956
H          2.36935       -2.12297       -2.35089
H          3.18744       -1.35218       -1.00211
H          0.04140       -1.54494       -2.99078
H         -0.40082       -1.97296       -1.35025
H         -2.25057       -0.82640       -2.24572
H         -1.56306        0.23855       -1.05593
H         -1.57962       -0.50443       -4.75514
H         -1.43341        1.24772       -6.48745
H         -1.08888        3.61636       -5.84174
H         -0.90072        4.23413       -3.44889
H         -1.04349        2.50009       -1.70178
H          1.30648        0.35990       -3.35892
H          2.16568        2.40357        0.18372
H          3.47639        3.57398        0.03854
H          2.15754        3.58998       -1.12193
H          4.90753        0.27716       -1.36180
H          5.26097        1.50176       -0.15539
H          3.88387        0.43299        0.07500
H          4.22031        2.92962       -3.03826

--Link1--
%chk=JID_8223.chk
%mem=8GB
%nprocshared=4
# B3LYP/6-311++G(d,p) empiricaldispersion=gd3bj scf=xqc pop=npa geom=check

CID_103430443_JID_8223_Energie_neutraal

0 1

--Link1--
%chk=JID_8223.chk
%mem=8GB
%nprocshared=4
# B3LYP/6-311++G(d,p) empiricaldispersion=gd3bj scf=xqc pop=npa geom=check

CID_103430443_JID_8223_Energie_kation

1 2

--Link1--
%chk=JID_8223.chk
%mem=8GB
%nprocshared=4
# B3LYP/6-311++G(d,p) empiricaldispersion=gd3bj scf=xqc pop=npa geom=check

CID_103430443_JID_8223_Energie_anion

-1 2
