%chk=JID_7792.chk
%mem=8GB
%nprocshared=4
# opt freq B3LYP/6-31G(d) empiricaldispersion=gd3bj scf=xqc

CID_113842864_JID_7792_neutraal

0 1
C          2.54100        1.06400        0.00800
C          1.21310        0.37261       -0.08619
C          0.03800        1.11531       -0.22702
C         -1.20396        0.47587       -0.29686
C         -1.26373       -0.92194       -0.20181
C         -0.10735       -1.68976       -0.01153
C          1.12910       -1.02169        0.02366
C         -0.14595       -3.20527        0.07548
C         -0.76867       -3.94430        1.31003
C         -2.27626       -3.59711        1.53270
N         -3.17363       -3.96227        0.43481
C         -0.69494       -5.48552        1.01161
O          0.64728       -5.95386        0.87274
C         -0.05600       -3.72984        2.65844
C          1.38933       -3.32534        2.80657
C          0.29688       -2.37719        3.22614
C         -2.45105        1.29055       -0.47870
H          2.55195        1.97155       -0.60474
H          2.74833        1.33507        1.04775
H          3.34662        0.41769       -0.35591
H          0.08941        2.20031       -0.29395
H         -2.23195       -1.40238       -0.28615
H          2.04765       -1.59360        0.14080
H         -0.65838       -3.54693       -0.83546
H          0.88444       -3.56111       -0.05568
H         -2.63492       -4.12734        2.42482
H         -2.39396       -2.53353        1.76587
H         -4.12716       -3.69524        0.68122
H         -2.94241       -3.44004       -0.40757
H         -1.14708       -6.05809        1.82969
H         -1.23227       -5.74967        0.09392
H          0.93462       -5.75612       -0.03390
H         -0.41335       -4.45428        3.39070
H          1.96567       -3.81426        3.58567
H          1.97775       -3.09067        1.93229
H          0.13220       -1.48160        2.64433
H          0.14791       -2.22226        4.29008
H         -2.56220        1.99914        0.34839
H         -2.40610        1.84250       -1.42302
H         -3.34521        0.65897       -0.50058

--Link1--
%chk=JID_7792.chk
%mem=8GB
%nprocshared=4
# B3LYP/6-311++G(d,p) empiricaldispersion=gd3bj scf=xqc pop=npa geom=check

CID_113842864_JID_7792_Energie_neutraal

0 1

--Link1--
%chk=JID_7792.chk
%mem=8GB
%nprocshared=4
# B3LYP/6-311++G(d,p) empiricaldispersion=gd3bj scf=xqc pop=npa geom=check

CID_113842864_JID_7792_Energie_kation

1 2

--Link1--
%chk=JID_7792.chk
%mem=8GB
%nprocshared=4
# B3LYP/6-311++G(d,p) empiricaldispersion=gd3bj scf=xqc pop=npa geom=check

CID_113842864_JID_7792_Energie_anion

-1 2
