%chk=JID_8401.chk
%mem=8GB
%nprocshared=4
# opt freq B3LYP/6-31G(d) empiricaldispersion=gd3bj scf=xqc

CID_79338977_JID_8401_neutraal

0 1
C          1.04350       -0.05665        0.06999
C          0.33562       -0.67502       -1.12533
N          1.29087       -0.86333       -2.20936
C          0.65035       -1.18314       -3.48193
C          0.97643       -0.14411       -4.53959
C          1.91264       -0.44668       -5.46902
C          2.41684        0.39666       -6.49163
C          3.04901        1.60731       -6.33265
N          3.37231        2.00625       -7.60232
C          4.01831        3.16359       -8.02840
C          4.22600        3.34967       -9.34382
C          3.76366        2.33283      -10.27866
C          3.14524        1.21231       -9.85631
C          2.92829        1.00627       -8.46395
N          2.37078        0.01191       -7.80259
C          0.19361        1.17216       -4.54899
C         -1.32363        0.97158       -4.46567
C          0.66607        2.16068       -3.48099
H          1.85861       -0.69721        0.42362
H          0.33853        0.07700        0.89690
H          1.46073        0.92553       -0.17715
H         -0.09604       -1.63980       -0.83715
H         -0.48537       -0.01376       -1.42104
H          1.88596       -0.04442       -2.31568
H          1.02595       -2.16687       -3.79083
H         -0.43345       -1.31869       -3.39400
H          2.36361       -1.43718       -5.45270
H          3.29349        2.19527       -5.46120
H          4.32989        3.87075       -7.27088
H          4.72534        4.23235       -9.72788
H          3.93271        2.50513      -11.33747
H          2.79946        0.45469      -10.54990
H          0.35555        1.66588       -5.51523
H         -1.63996        0.62449       -3.47708
H         -1.84367        1.91651       -4.65890
H         -1.66668        0.24546       -5.21072
H          1.75654        2.25606       -3.47585
H          0.24768        3.15472       -3.67489
H          0.34590        1.86969       -2.47776

--Link1--
%chk=JID_8401.chk
%mem=8GB
%nprocshared=4
# B3LYP/6-311++G(d,p) empiricaldispersion=gd3bj scf=xqc pop=npa geom=check

CID_79338977_JID_8401_Energie_neutraal

0 1

--Link1--
%chk=JID_8401.chk
%mem=8GB
%nprocshared=4
# B3LYP/6-311++G(d,p) empiricaldispersion=gd3bj scf=xqc pop=npa geom=check

CID_79338977_JID_8401_Energie_kation

1 2

--Link1--
%chk=JID_8401.chk
%mem=8GB
%nprocshared=4
# B3LYP/6-311++G(d,p) empiricaldispersion=gd3bj scf=xqc pop=npa geom=check

CID_79338977_JID_8401_Energie_anion

-1 2
