%chk=JID_7346.chk
%mem=8GB
%nprocshared=4
# opt freq B3LYP/6-31G(d) empiricaldispersion=gd3bj scf=xqc

CID_61759126_JID_7346_neutraal

0 1
C          1.07019       -0.03860       -0.05987
C          1.07765       -1.15634       -1.09434
C          1.85543       -2.40732       -0.66995
N          1.39417       -2.88215        0.62783
C          1.60900       -4.31414        0.87156
C          3.09788       -4.64919        0.99237
C          0.87703       -4.70382        2.17515
C         -0.63923       -4.45473        2.12806
N         -1.31690       -5.43483        1.29270
C         -1.96319       -6.50053        2.03606
C         -2.04659       -4.92357        0.13736
C         -3.25077       -3.93907        0.21001
C         -4.41041       -4.36234        1.12126
C         -4.40329       -3.71325        2.50021
C         -4.31941       -2.19866        2.39208
C         -3.03741       -1.78799        1.68905
C         -2.88308       -2.44386        0.31909
H          0.51321       -0.32344        0.83815
H          0.58985        0.85295       -0.47585
H          2.08978        0.23110        0.23293
H          0.04123       -1.42955       -1.32565
H          1.51508       -0.77506       -2.02489
H          1.70890       -3.16969       -1.44451
H          2.92731       -2.18254       -0.62769
H          1.82289       -2.33025        1.36989
H          1.18331       -4.89804        0.04657
H          3.57657       -4.06987        1.78974
H          3.23603       -5.71163        1.22071
H          3.63087       -4.44534        0.05780
H          1.07162       -5.75830        2.41041
H          1.29368       -4.12524        3.01110
H         -1.03564       -4.47390        3.15111
H         -0.80459       -3.44173        1.76728
H         -2.78087       -6.14525        2.66673
H         -2.35700       -7.27033        1.36353
H         -1.23908       -7.00368        2.68706
H         -1.30326       -4.47374       -0.53563
H         -2.39523       -5.79964       -0.42908
H         -3.66412       -4.02804       -0.80878
H         -5.34732       -4.06688        0.62808
H         -4.46340       -5.45233        1.20987
H         -3.56323       -4.08241        3.09640
H         -5.31849       -3.99004        3.03574
H         -4.34776       -1.75298        3.39277
H         -5.18660       -1.81169        1.84349
H         -2.18786       -2.02915        2.33293
H         -3.01904       -0.69799        1.56843
H         -1.87348       -2.26229       -0.06502
H         -3.55163       -1.89959       -0.36353

--Link1--
%chk=JID_7346.chk
%mem=8GB
%nprocshared=4
# B3LYP/6-311++G(d,p) empiricaldispersion=gd3bj scf=xqc pop=npa geom=check

CID_61759126_JID_7346_Energie_neutraal

0 1

--Link1--
%chk=JID_7346.chk
%mem=8GB
%nprocshared=4
# B3LYP/6-311++G(d,p) empiricaldispersion=gd3bj scf=xqc pop=npa geom=check

CID_61759126_JID_7346_Energie_kation

1 2

--Link1--
%chk=JID_7346.chk
%mem=8GB
%nprocshared=4
# B3LYP/6-311++G(d,p) empiricaldispersion=gd3bj scf=xqc pop=npa geom=check

CID_61759126_JID_7346_Energie_anion

-1 2
