%chk=JID_2203.chk
%mem=8GB
%nprocshared=4
# opt freq B3LYP/6-31G(d) empiricaldispersion=gd3bj scf=xqc

CID_137176332_JID_2203_neutraal

0 1
C          2.11600        0.05100        0.77100
C          1.80255       -1.37556        0.30560
C          0.61879       -1.50983       -0.64625
N         -0.53210       -0.74625       -0.23887
C         -1.76057       -1.22983        0.07838
N         -2.57610       -0.22759        0.30097
N         -1.86451        0.93744        0.11603
C         -0.61971        0.62149       -0.19328
C          0.43818        1.58542       -0.42663
N          0.10254        2.79005       -0.79188
O          1.21028        3.60396       -1.05129
C          1.89503        1.12998       -0.28961
H          3.16402        0.07536        1.09487
H          1.51959        0.28082        1.66320
H          2.68717       -1.79418       -0.19027
H          1.63072       -1.99516        1.19480
H          0.32644       -2.56275       -0.73074
H          0.88756       -1.17318       -1.65457
H         -2.01434       -2.27945        0.12407
H          0.78842        4.45594       -1.27424
H          2.50098        1.99300        0.00863
H          2.25854        0.80830       -1.27176

--Link1--
%chk=JID_2203.chk
%mem=8GB
%nprocshared=4
# B3LYP/6-311++G(d,p) empiricaldispersion=gd3bj scf=xqc pop=npa geom=check

CID_137176332_JID_2203_Energie_neutraal

0 1

--Link1--
%chk=JID_2203.chk
%mem=8GB
%nprocshared=4
# B3LYP/6-311++G(d,p) empiricaldispersion=gd3bj scf=xqc pop=npa geom=check

CID_137176332_JID_2203_Energie_kation

1 2

--Link1--
%chk=JID_2203.chk
%mem=8GB
%nprocshared=4
# B3LYP/6-311++G(d,p) empiricaldispersion=gd3bj scf=xqc pop=npa geom=check

CID_137176332_JID_2203_Energie_anion

-1 2
