%chk=JID_1375.chk
%mem=8GB
%nprocshared=4
# opt freq B3LYP/6-31G(d) empiricaldispersion=gd3bj scf=xqc

CID_84649865_JID_1375_neutraal

0 1
C          1.04604        0.07997        0.03853
C          0.30031       -1.15666        0.54869
C          0.82435       -1.52066        1.93914
C         -1.18755       -0.89857        0.59110
C         -1.93370       -0.64154       -0.69106
C         -2.25031       -1.88647        0.11090
C         -1.88439       -3.21268       -0.54738
C         -1.38763       -4.32126        0.34375
C         -1.50601       -4.36957        1.84956
C         -2.39164       -5.23667        1.00692
N         -3.55930       -1.84576        0.80194
H          0.84345        0.95407        0.66747
H          0.74173        0.33084       -0.98289
H          2.12766       -0.09159        0.03013
H          0.52861       -1.98559       -0.12943
H          0.66712       -0.70216        2.65072
H          0.31537       -2.40081        2.33767
H          1.89694       -1.73918        1.90659
H         -1.45151       -0.25547        1.42742
H         -2.65247        0.17149       -0.69446
H         -1.40817       -0.74735       -1.63314
H         -2.75542       -3.57496       -1.10977
H         -1.11575       -3.04086       -1.31210
H         -0.51516       -4.79896       -0.09368
H         -0.70326       -4.85105        2.39939
H         -1.94219       -3.53778        2.38541
H         -3.44487       -4.98752        0.95356
H         -2.19177       -6.30249        0.98899
H         -4.31013       -2.04582        0.14232
H         -3.61193       -2.57413        1.51113

--Link1--
%chk=JID_1375.chk
%mem=8GB
%nprocshared=4
# B3LYP/6-311++G(d,p) empiricaldispersion=gd3bj scf=xqc pop=npa geom=check

CID_84649865_JID_1375_Energie_neutraal

0 1

--Link1--
%chk=JID_1375.chk
%mem=8GB
%nprocshared=4
# B3LYP/6-311++G(d,p) empiricaldispersion=gd3bj scf=xqc pop=npa geom=check

CID_84649865_JID_1375_Energie_kation

1 2

--Link1--
%chk=JID_1375.chk
%mem=8GB
%nprocshared=4
# B3LYP/6-311++G(d,p) empiricaldispersion=gd3bj scf=xqc pop=npa geom=check

CID_84649865_JID_1375_Energie_anion

-1 2
