%chk=JID_6614.chk
%mem=8GB
%nprocshared=4
# opt freq B3LYP/6-31G(d) empiricaldispersion=gd3bj scf=xqc

CID_117526480_JID_6614_neutraal

0 1
C          0.33400        1.00600       -0.17300
C          0.89465       -0.42709       -0.24243
C         -0.57481       -0.92263       -0.36161
C         -0.94878        0.38562        0.40281
C         -0.91364       -2.17349        0.42823
N         -0.37593       -2.49903        1.58341
C         -1.02701       -3.64030        1.98042
C         -1.98084       -4.01865        1.04420
N         -1.86001       -3.08820        0.04448
C         -2.82870       -5.11548        1.21061
C         -2.69499       -5.85230        2.40156
C         -1.71468       -5.50353        3.34534
C         -0.87151       -4.40215        3.14522
C         -3.64058       -7.00004        2.68363
C         -4.71362       -6.67248        3.72737
S         -5.93025       -5.44802        3.14356
H          0.19840        1.47639       -1.15359
H          0.86690        1.69645        0.48506
H          1.53405       -0.63635       -1.10460
H          1.42664       -0.72879        0.66799
H         -0.98290       -0.92476       -1.38021
H         -0.94447        0.31116        1.49720
H         -1.88101        0.86330        0.08808
H         -2.41347       -3.04746       -0.79775
H         -3.57862       -5.36746        0.46753
H         -1.60434       -6.08178        4.26068
H         -0.12487       -4.12353        3.88024
H         -4.10722       -7.34678        1.75255
H         -3.04358       -7.84787        3.04447
H         -5.26488       -7.58519        3.97523
H         -4.26500       -6.29557        4.65238
H         -5.07173       -4.41965        3.04931

--Link1--
%chk=JID_6614.chk
%mem=8GB
%nprocshared=4
# B3LYP/6-311++G(d,p) empiricaldispersion=gd3bj scf=xqc pop=npa geom=check

CID_117526480_JID_6614_Energie_neutraal

0 1

--Link1--
%chk=JID_6614.chk
%mem=8GB
%nprocshared=4
# B3LYP/6-311++G(d,p) empiricaldispersion=gd3bj scf=xqc pop=npa geom=check

CID_117526480_JID_6614_Energie_kation

1 2

--Link1--
%chk=JID_6614.chk
%mem=8GB
%nprocshared=4
# B3LYP/6-311++G(d,p) empiricaldispersion=gd3bj scf=xqc pop=npa geom=check

CID_117526480_JID_6614_Energie_anion

-1 2
