%chk=JID_9179.chk
%mem=8GB
%nprocshared=4
# opt freq B3LYP/6-31G(d) empiricaldispersion=gd3bj scf=xqc

CID_80079935_JID_9179_neutraal

0 1
C         -2.94600        0.04200        0.02500
C         -1.45486       -0.04340       -0.11091
C         -0.81815       -1.29262       -0.10818
C          0.57741       -1.39290       -0.18020
C          1.34426       -0.21227       -0.31637
C          0.71412        1.03216       -0.23769
C         -0.67675        1.11715       -0.15197
N          2.75759       -0.28512       -0.30714
N          1.26820       -2.63333       -0.13452
C          0.74380       -3.94254       -0.14969
C          1.13228       -4.86665        0.83188
C          0.64712       -6.17527        0.82749
C         -0.26855       -6.57846       -0.14586
C         -0.67611       -5.66603       -1.12069
C         -0.16887       -4.35970       -1.12285
O         -0.68300       -7.87750       -0.03791
C         -1.60978       -8.34023       -1.01217
O          2.04688       -4.48127        1.78367
C          1.37519       -4.18595        3.01002
H         -3.43165       -0.80080       -0.47809
H         -3.22690        0.03420        1.08263
H         -3.32901        0.95876       -0.43552
H         -1.42374       -2.18798       -0.00290
H          1.30156        1.94571       -0.24890
H         -1.14686        2.09681       -0.10623
H          3.06112       -1.15282       -0.74839
H          3.18948        0.52249       -0.74508
H          2.03178       -2.55650        0.54133
H          0.98398       -6.88288        1.57918
H         -1.37794       -5.93739       -1.90216
H         -0.47535       -3.67108       -1.90666
H         -2.54792       -7.77757       -0.96322
H         -1.17737       -8.30281       -2.01745
H         -1.83750       -9.38646       -0.78650
H          0.59286       -3.43190        2.86664
H          0.95446       -5.09269        3.45738
H          2.11444       -3.77741        3.70544

--Link1--
%chk=JID_9179.chk
%mem=8GB
%nprocshared=4
# B3LYP/6-311++G(d,p) empiricaldispersion=gd3bj scf=xqc pop=npa geom=check

CID_80079935_JID_9179_Energie_neutraal

0 1

--Link1--
%chk=JID_9179.chk
%mem=8GB
%nprocshared=4
# B3LYP/6-311++G(d,p) empiricaldispersion=gd3bj scf=xqc pop=npa geom=check

CID_80079935_JID_9179_Energie_kation

1 2

--Link1--
%chk=JID_9179.chk
%mem=8GB
%nprocshared=4
# B3LYP/6-311++G(d,p) empiricaldispersion=gd3bj scf=xqc pop=npa geom=check

CID_80079935_JID_9179_Energie_anion

-1 2
