%chk=JID_4471.chk
%mem=8GB
%nprocshared=4
# opt freq B3LYP/6-31G(d) empiricaldispersion=gd3bj scf=xqc

CID_83530603_JID_4471_neutraal

0 1
C          0.99291       -0.04167       -0.09063
C          0.65425       -1.40486        0.44235
C          1.26424       -2.55551       -0.06713
C          0.93524       -3.73189        0.61301
N          0.01405       -3.78763        1.60157
C         -0.55504       -2.62714        1.95942
N         -0.27260       -1.42566        1.42845
C         -1.55500       -2.64587        3.01708
C         -2.32346       -1.66403        3.61703
C         -3.11980       -2.30555        4.59616
C         -2.79239       -3.63898        4.53783
O         -1.84881       -3.85751        3.58660
C          1.59210       -5.03998        0.27564
N          2.30420       -2.49912       -1.01108
H          0.43566        0.73512        0.44378
H          0.73133        0.02818       -1.15103
H          2.05998        0.16525        0.03740
H         -2.29969       -0.61243        3.36667
H         -3.84113       -1.85314        5.26160
H         -3.12154       -4.51678        5.07612
H          1.37082       -5.32120       -0.75864
H          2.67582       -4.97057        0.41187
H          1.22426       -5.84040        0.92644
H          2.45630       -3.36681       -1.51673
H          2.25231       -1.70711       -1.64455

--Link1--
%chk=JID_4471.chk
%mem=8GB
%nprocshared=4
# B3LYP/6-311++G(d,p) empiricaldispersion=gd3bj scf=xqc pop=npa geom=check

CID_83530603_JID_4471_Energie_neutraal

0 1

--Link1--
%chk=JID_4471.chk
%mem=8GB
%nprocshared=4
# B3LYP/6-311++G(d,p) empiricaldispersion=gd3bj scf=xqc pop=npa geom=check

CID_83530603_JID_4471_Energie_kation

1 2

--Link1--
%chk=JID_4471.chk
%mem=8GB
%nprocshared=4
# B3LYP/6-311++G(d,p) empiricaldispersion=gd3bj scf=xqc pop=npa geom=check

CID_83530603_JID_4471_Energie_anion

-1 2
