%chk=JID_5608.chk
%mem=8GB
%nprocshared=4
# opt freq B3LYP/6-31G(d) empiricaldispersion=gd3bj scf=xqc

CID_60930152_JID_5608_neutraal

0 1
C          1.08566       -0.02022       -0.04747
C          0.47383       -1.40720        0.07701
N          1.01081       -2.13265        1.22968
C          0.08857       -2.80477        2.04632
C         -0.82512       -3.77647        1.58862
C         -1.72462       -4.36985        2.50038
C         -1.71875       -4.03948        3.86166
C         -0.79137       -3.10037        4.31357
C          0.09292       -2.49563        3.41802
C         -2.67947       -4.69014        4.82168
N         -1.99090       -5.60198        5.72695
C         -0.90001       -4.21556        0.15241
C          2.38503       -2.67528        1.27446
C          2.92918       -3.07510       -0.09698
C          3.32831       -1.67839        1.95196
H          1.01230        0.53072        0.89593
H          0.56232        0.55327       -0.81946
H          2.13907       -0.06697       -0.33507
H         -0.60868       -1.26053        0.18822
H          0.62007       -1.96679       -0.85288
H         -2.43665       -5.10964        2.13869
H         -0.75242       -2.83460        5.36739
H          0.78862       -1.75099        3.79576
H         -3.19573       -3.91501        5.39943
H         -3.45204       -5.24043        4.27229
H         -2.68002       -6.12419        6.26295
H         -1.47435       -6.28384        5.17333
H         -1.44989       -3.48104       -0.44301
H          0.09759       -4.36100       -0.26762
H         -1.41649       -5.17735        0.05774
H          2.39917       -3.58827        1.88696
H          3.04290       -2.21485       -0.76362
H          3.91597       -3.54030        0.00531
H          2.27491       -3.79997       -0.58930
H          2.96681       -1.40048        2.94668
H          4.32576       -2.11517        2.07222
H          3.43990       -0.75762        1.37314

--Link1--
%chk=JID_5608.chk
%mem=8GB
%nprocshared=4
# B3LYP/6-311++G(d,p) empiricaldispersion=gd3bj scf=xqc pop=npa geom=check

CID_60930152_JID_5608_Energie_neutraal

0 1

--Link1--
%chk=JID_5608.chk
%mem=8GB
%nprocshared=4
# B3LYP/6-311++G(d,p) empiricaldispersion=gd3bj scf=xqc pop=npa geom=check

CID_60930152_JID_5608_Energie_kation

1 2

--Link1--
%chk=JID_5608.chk
%mem=8GB
%nprocshared=4
# B3LYP/6-311++G(d,p) empiricaldispersion=gd3bj scf=xqc pop=npa geom=check

CID_60930152_JID_5608_Energie_anion

-1 2
