%chk=JID_157.chk
%mem=8GB
%nprocshared=4
# opt freq B3LYP/6-31G(d) empiricaldispersion=gd3bj scf=xqc

CID_53755389_JID_157_neutraal

0 1
C          0.91845        0.05643        0.01287
C          0.15694       -0.85145       -0.95305
C          0.43742       -2.31348       -0.57681
C         -1.36856       -0.61295       -0.94592
C         -1.93913        0.63944       -1.65347
C         -1.47030        0.75401       -3.11247
C         -2.22348        1.83779       -3.88587
C         -2.05895        3.22924       -3.28825
S         -2.67064        3.31271       -1.58038
C         -1.70301        1.93900       -0.87882
H          0.45330        0.06753        1.00402
H          0.97069        1.08102       -0.35847
H          1.95410       -0.28124        0.13240
H          0.55467       -0.70080       -1.96245
H          0.06930       -2.54272        0.42908
H         -0.04755       -2.99755       -1.28147
H          1.51204       -2.52408       -0.60207
H         -1.84102       -1.47727       -1.43466
H         -1.73359       -0.63192        0.08983
H         -3.02699        0.47189       -1.67492
H         -0.39695        0.97375       -3.15195
H         -1.61984       -0.20526       -3.62310
H         -1.85321        1.85283       -4.91823
H         -3.28802        1.57772       -3.94442
H         -1.00718        3.53383       -3.30154
H         -2.61720        3.95685       -3.88617
H         -1.99728        1.82260        0.16909
H         -0.65617        2.24500       -0.90235

--Link1--
%chk=JID_157.chk
%mem=8GB
%nprocshared=4
# B3LYP/6-311++G(d,p) empiricaldispersion=gd3bj scf=xqc pop=npa geom=check

CID_53755389_JID_157_Energie_neutraal

0 1

--Link1--
%chk=JID_157.chk
%mem=8GB
%nprocshared=4
# B3LYP/6-311++G(d,p) empiricaldispersion=gd3bj scf=xqc pop=npa geom=check

CID_53755389_JID_157_Energie_kation

1 2

--Link1--
%chk=JID_157.chk
%mem=8GB
%nprocshared=4
# B3LYP/6-311++G(d,p) empiricaldispersion=gd3bj scf=xqc pop=npa geom=check

CID_53755389_JID_157_Energie_anion

-1 2
