%chk=JID_7387.chk
%mem=8GB
%nprocshared=4
# opt freq B3LYP/6-31G(d) empiricaldispersion=gd3bj scf=xqc

CID_104605729_JID_7387_neutraal

0 1
C          0.93558        0.07616        0.00709
N          0.57285       -0.03695        1.39385
C          0.78003       -1.09363        2.23929
N          0.28561       -0.79880        3.41287
C         -0.23561        0.46995        3.24940
N         -0.05000        0.97705        2.01987
C         -0.83876        1.19512        4.36442
C         -0.21846        1.07895        5.62283
C         -0.72368        1.73568        6.74627
C         -1.86962        2.51553        6.63595
C         -2.50890        2.64522        5.39893
C         -1.99682        1.98802        4.25373
C         -2.83858        2.12960        3.00705
C         -3.38529        3.56149        2.84714
N         -3.79997        4.26301        4.06782
C         -3.79654        3.42158        5.25987
N          1.40268       -2.23349        1.89153
H          0.44877        0.95290       -0.42818
H          0.60508       -0.82293       -0.51888
H          2.02124        0.18146       -0.05701
H          0.67568        0.46641        5.72920
H         -0.22412        1.63120        7.70547
H         -2.26481        3.01532        7.51656
H         -3.67585        1.42414        3.08977
H         -2.30243        1.87444        2.09231
H         -4.22398        3.53628        2.14093
H         -2.61064        4.17942        2.37649
H         -4.71585        4.68593        3.93971
H         -3.93964        4.06897        6.13232
H         -4.63842        2.71856        5.23773
H          1.63853       -2.84597        2.66835
H          2.10346       -2.23999        1.16004

--Link1--
%chk=JID_7387.chk
%mem=8GB
%nprocshared=4
# B3LYP/6-311++G(d,p) empiricaldispersion=gd3bj scf=xqc pop=npa geom=check

CID_104605729_JID_7387_Energie_neutraal

0 1

--Link1--
%chk=JID_7387.chk
%mem=8GB
%nprocshared=4
# B3LYP/6-311++G(d,p) empiricaldispersion=gd3bj scf=xqc pop=npa geom=check

CID_104605729_JID_7387_Energie_kation

1 2

--Link1--
%chk=JID_7387.chk
%mem=8GB
%nprocshared=4
# B3LYP/6-311++G(d,p) empiricaldispersion=gd3bj scf=xqc pop=npa geom=check

CID_104605729_JID_7387_Energie_anion

-1 2
