%chk=JID_10902.chk
%mem=8GB
%nprocshared=4
# opt=(cartesian,calcfc,maxcycle=500) freq B3LYP/6-31G(d) empiricaldispersion=gd3bj scf=xqc

CID_102916672_JID_10902_neutraal

0 1
N       1.3952  -1.5537 -0.5862
N       -3.2565 1.3766  0.1745
N       2.9772  3.0215  0.8697
C       0.0453  -1.5209 -0.3177
C       -0.2497 -2.6539 0.4438
C       2.1246  -0.5652 -1.3511
C       -2.2395 -0.8149 -0.2642
C       -0.9272 -0.5847 -0.6867
C       1.9622  -2.6648 -0.0221
C       0.9694  -3.3657 0.6230
C       -1.5798 -2.8653 0.8578
C       -3.3099 0.1583  -0.6341
C       -2.5631 -1.9369 0.4963
C       2.4231  0.6920  -0.5727
C       -4.3059 2.3025  -0.2208
C       1.9925  1.9260  -1.0475
C       3.1302  0.6215  0.6224
C       -4.2597 3.5725  0.6117
C       2.2924  3.0507  -0.2957
C       3.3792  1.8044  1.2996
H       1.5398  -0.3530 -2.2543
H       3.0669  -1.0140 -1.6889
H       -0.6766 0.2867  -1.2825
H       3.0199  -2.8693 -0.1214
H       1.1067  -4.2913 1.1651
H       -1.8457 -3.7353 1.4514
H       -3.1996 0.4063  -1.6982
H       -4.2947 -0.3167 -0.5333
H       -3.5862 -2.1075 0.8231
H       -3.3694 1.1372  1.1596
H       -4.1909 2.5755  -1.2764
H       -5.2924 1.8392  -0.1007
H       1.4387  2.0194  -1.9753
H       3.4926  -0.3186 1.0229
H       -5.0495 4.2614  0.2954
H       -3.2987 4.0852  0.4973
H       -4.4077 3.3549  1.6749
H       1.9790  4.0368  -0.6223
H       3.9288  1.8038  2.2351

--Link1--
%chk=JID_10902.chk
%mem=8GB
%nprocshared=4
# B3LYP/6-311++G(d,p) empiricaldispersion=gd3bj scf=xqc pop=npa geom=check

CID_102916672_JID_10902_Energie_neutraal

0 1

--Link1--
%chk=JID_10902.chk
%mem=8GB
%nprocshared=4
# B3LYP/6-311++G(d,p) empiricaldispersion=gd3bj scf=xqc pop=npa geom=check

CID_102916672_JID_10902_Energie_kation

1 2

--Link1--
%chk=JID_10902.chk
%mem=8GB
%nprocshared=4
# B3LYP/6-311++G(d,p) empiricaldispersion=gd3bj scf=xqc pop=npa geom=check

CID_102916672_JID_10902_Energie_anion

-1 2
