%chk=JID_780.chk
%mem=8GB
%nprocshared=4
# opt freq B3LYP/6-31G(d) empiricaldispersion=gd3bj scf=xqc

CID_148751009_JID_780_neutraal

0 1
C          0.97932        0.05173        0.08305
C          0.34424        1.39725        0.43840
C          0.75980        2.45239       -0.59051
C         -1.19274        1.31798        0.51035
C         -1.76111        0.34826        1.55291
C         -1.31435        0.53295        3.00518
N         -1.76128        1.84303        3.66621
C         -3.26774        2.04626        3.59894
O         -1.33811        1.85129        5.04861
O         -1.12290        2.95771        3.02191
H          0.58325       -0.33736       -0.86102
H          0.79655       -0.69330        0.86323
H          2.06515        0.15106       -0.02210
H          0.73927        1.71676        1.40928
H          0.40610        2.19166       -1.59382
H          0.34851        3.43320       -0.32914
H          1.85005        2.54912       -0.63002
H         -1.60529        2.31838        0.68336
H         -1.57725        1.01290       -0.47244
H         -2.85526        0.37507        1.49245
H         -1.49222       -0.67284        1.25433
H         -1.73708       -0.27158        3.61856
H         -0.22489        0.49036        3.10531
H         -3.75087        1.15347        4.00387
H         -3.50863        2.92293        4.20680
H         -3.55377        2.22353        2.55987
H         -1.76859        1.08012        5.47230
H         -0.62076        3.37912        3.74795

--Link1--
%chk=JID_780.chk
%mem=8GB
%nprocshared=4
# B3LYP/6-311++G(d,p) empiricaldispersion=gd3bj scf=xqc pop=npa geom=check

CID_148751009_JID_780_Energie_neutraal

0 1

--Link1--
%chk=JID_780.chk
%mem=8GB
%nprocshared=4
# B3LYP/6-311++G(d,p) empiricaldispersion=gd3bj scf=xqc pop=npa geom=check

CID_148751009_JID_780_Energie_kation

1 2

--Link1--
%chk=JID_780.chk
%mem=8GB
%nprocshared=4
# B3LYP/6-311++G(d,p) empiricaldispersion=gd3bj scf=xqc pop=npa geom=check

CID_148751009_JID_780_Energie_anion

-1 2
