%chk=JID_10268.chk
%mem=8GB
%nprocshared=4
# opt freq B3LYP/6-31G(d) empiricaldispersion=gd3bj scf=xqc

CID_80596128_JID_10268_neutraal

0 1
C          1.85600       -0.01500       -0.20000
C          1.05507        1.04804        0.54627
C         -0.28865        1.35841       -0.09949
S         -1.36509       -0.10492       -0.19347
C         -0.22995       -1.27277       -1.02482
C          1.11502       -1.34900       -0.29075
C         -0.03683       -0.98776       -2.47787
N         -0.08672        0.14417       -3.15029
N          0.32021       -0.14385       -4.43527
C          0.59195       -1.43232       -4.46435
O          0.37701       -2.04099       -3.25485
C          1.14438       -2.25048       -5.53498
C          1.63509       -1.63275       -6.69552
C          2.20894       -2.38956       -7.72243
C          2.29457       -3.78098       -7.60676
C          1.79566       -4.40932       -6.46038
C          1.22632       -3.64787       -5.43275
C          2.92485       -4.54201       -8.71225
O          3.39195       -4.06557       -9.72982
O          2.94523       -5.86734       -8.48699
H          2.11284        0.34841       -1.20193
H          2.80613       -0.17387        0.32408
H          0.90557        0.73302        1.58701
H          1.64737        1.97023        0.58689
H         -0.81038        2.11598        0.49469
H         -0.15221        1.78007       -1.09957
H         -0.71194       -2.25493       -0.94643
H          1.76884       -2.07404       -0.79310
H          0.95627       -1.73951        0.72353
H          1.58536       -0.54921       -6.80215
H          2.59301       -1.88631       -8.60822
H          1.84895       -5.49033       -6.35215
H          0.85033       -4.16162       -4.54978
H          3.38444       -6.23318       -9.28359

--Link1--
%chk=JID_10268.chk
%mem=8GB
%nprocshared=4
# B3LYP/6-311++G(d,p) empiricaldispersion=gd3bj scf=xqc pop=npa geom=check

CID_80596128_JID_10268_Energie_neutraal

0 1

--Link1--
%chk=JID_10268.chk
%mem=8GB
%nprocshared=4
# B3LYP/6-311++G(d,p) empiricaldispersion=gd3bj scf=xqc pop=npa geom=check

CID_80596128_JID_10268_Energie_kation

1 2

--Link1--
%chk=JID_10268.chk
%mem=8GB
%nprocshared=4
# B3LYP/6-311++G(d,p) empiricaldispersion=gd3bj scf=xqc pop=npa geom=check

CID_80596128_JID_10268_Energie_anion

-1 2
