%chk=JID_8864.chk
%mem=8GB
%nprocshared=4
# opt freq B3LYP/6-31G(d) empiricaldispersion=gd3bj scf=xqc

CID_43111022_JID_8864_neutraal

0 1
C          1.02310        0.08737        0.04282
C          0.75058        1.56986        0.24154
C          1.30582        2.44844       -0.88153
C          0.74737        2.16705       -2.27976
C         -0.77603        2.26786       -2.42033
C         -1.40286        3.59667       -1.98133
N         -0.85905        4.71610       -2.74158
C         -1.61791        5.97155       -2.59973
C         -1.50085        6.51860       -1.16805
C         -1.18007        6.95950       -3.68642
C         -1.04948        6.50743       -5.01351
C         -0.67594        7.37150       -6.04753
C         -0.43810        8.72348       -5.79026
C         -0.58838        9.19161       -4.48070
C         -0.95238        8.32225       -3.44494
C         -0.03926        9.65988       -6.90378
C          1.37790       10.22579       -6.76674
C          2.46136        9.16461       -6.89880
H          0.48496       -0.30679       -0.82419
H          0.69319       -0.47604        0.92159
H          2.09218       -0.10057       -0.09785
H         -0.32651        1.73082        0.35782
H          1.21368        1.88487        1.18453
H          1.12971        3.49927       -0.62311
H          2.39602        2.32774       -0.91804
H          1.22199        2.85917       -2.98628
H          1.05813        1.16524       -2.60028
H         -1.03495        2.08269       -3.47123
H         -1.24691        1.45753       -1.85069
H         -2.48463        3.52241       -2.14592
H         -1.24647        3.73721       -0.90746
H          0.11411        4.88428       -2.49149
H         -2.68003        5.77175       -2.79649
H         -0.46522        6.77734       -0.91872
H         -2.11782        7.41420       -1.03563
H         -1.85625        5.79805       -0.42482
H         -1.23311        5.45986       -5.24769
H         -0.57318        6.97328       -7.05436
H         -0.42514       10.24268       -4.25389
H         -1.05498        8.74616       -2.45021
H         -0.13765        9.15694       -7.87419
H         -0.75736       10.48973       -6.92313
H          1.52904       10.97494       -7.55329
H          1.49705       10.74634       -5.80948
H          2.37240        8.62865       -7.84902
H          3.45059        9.63236       -6.86534
H          2.41014        8.43574       -6.08425

--Link1--
%chk=JID_8864.chk
%mem=8GB
%nprocshared=4
# B3LYP/6-311++G(d,p) empiricaldispersion=gd3bj scf=xqc pop=npa geom=check

CID_43111022_JID_8864_Energie_neutraal

0 1

--Link1--
%chk=JID_8864.chk
%mem=8GB
%nprocshared=4
# B3LYP/6-311++G(d,p) empiricaldispersion=gd3bj scf=xqc pop=npa geom=check

CID_43111022_JID_8864_Energie_kation

1 2

--Link1--
%chk=JID_8864.chk
%mem=8GB
%nprocshared=4
# B3LYP/6-311++G(d,p) empiricaldispersion=gd3bj scf=xqc pop=npa geom=check

CID_43111022_JID_8864_Energie_anion

-1 2
