%chk=JID_9450.chk
%mem=8GB
%nprocshared=4
# opt freq B3LYP/6-31G(d) empiricaldispersion=gd3bj scf=xqc

CID_79984351_JID_9450_neutraal

0 1
C         -0.02900        0.88300        0.00000
C         -0.64897       -0.45060        0.28517
C          0.83527       -0.25472        0.49347
C          1.82331       -0.91062       -0.43978
C          1.80901       -2.29497       -0.66347
C          2.72704       -2.90777       -1.52285
C          3.70112       -2.15088       -2.18843
C          3.73457       -0.76847       -1.95708
C          2.81201       -0.16407       -1.09695
C          4.72256       -2.79110       -3.12111
C          5.31844       -4.10884       -2.52593
O          5.23465       -5.23078       -3.01961
N          6.01158       -3.95432       -1.34878
N          4.30730       -2.97072       -4.52818
C          3.14696       -3.83623       -4.77903
C          1.79333       -3.11382       -4.97599
N          1.86161       -2.00648       -5.94359
C          2.90671       -1.07092       -5.50226
C          4.28530       -1.74667       -5.33711
H         -0.23366        1.69668        0.68621
H          0.04412        1.18878       -1.03784
H         -1.27474       -0.54364        1.16530
H         -0.98967       -1.03548       -0.56207
H          1.16213       -0.18593        1.52965
H          1.06310       -2.90984       -0.16322
H          2.66533       -3.98503       -1.66715
H          4.47671       -0.14407       -2.45015
H          2.86069        0.91189       -0.94052
H          5.60440       -2.13156       -3.13736
H          5.86626       -3.14189       -0.76373
H          6.32652       -4.80690       -0.90455
H          3.36203       -4.38461       -5.70625
H          3.02864       -4.61039       -4.01423
H          1.41336       -2.73300       -4.02268
H          1.05347       -3.83898       -5.33365
H          2.14920       -2.39777       -6.84128
H          2.59455       -0.59173       -4.56868
H          2.99048       -0.27068       -6.24628
H          5.01295       -1.01042       -4.97491
H          4.63823       -2.02462       -6.33953

--Link1--
%chk=JID_9450.chk
%mem=8GB
%nprocshared=4
# B3LYP/6-311++G(d,p) empiricaldispersion=gd3bj scf=xqc pop=npa geom=check

CID_79984351_JID_9450_Energie_neutraal

0 1

--Link1--
%chk=JID_9450.chk
%mem=8GB
%nprocshared=4
# B3LYP/6-311++G(d,p) empiricaldispersion=gd3bj scf=xqc pop=npa geom=check

CID_79984351_JID_9450_Energie_kation

1 2

--Link1--
%chk=JID_9450.chk
%mem=8GB
%nprocshared=4
# B3LYP/6-311++G(d,p) empiricaldispersion=gd3bj scf=xqc pop=npa geom=check

CID_79984351_JID_9450_Energie_anion

-1 2
