%chk=JID_9515.chk
%mem=8GB
%nprocshared=4
# opt freq B3LYP/6-31G(d) empiricaldispersion=gd3bj scf=xqc

CID_15055621_JID_9515_neutraal

0 1
C          1.21700       -1.43300       -0.36300
C          2.13826       -0.81398        0.68604
N          2.38549        0.60227        0.42247
C          1.21884        1.44877        0.17405
C         -0.05401        0.72312       -0.20008
C         -1.25229        1.44662       -0.29700
C         -2.44344        0.80569       -0.63826
C         -2.44843       -0.56262       -0.89746
C         -1.26370       -1.29292       -0.81274
C         -0.06804       -0.65859       -0.45223
C          3.53950        1.28211        0.81692
O          3.64918        2.50243        0.65999
C          4.70703        0.48633        1.37518
C          4.47147       -0.08489        2.75250
C          5.19018       -1.20534        3.16697
C          4.97060       -1.71551        4.44442
C          4.05481       -1.09017        5.28057
C          3.39474        0.02651        4.80219
N          3.58420        0.53618        3.56589
H          1.70004       -1.42282       -1.34749
H          1.01825       -2.47630       -0.09226
H          3.07548       -1.37512        0.69294
H          1.69652       -0.88972        1.68756
H          1.03652        2.02264        1.09198
H          1.47680        2.15525       -0.62425
H         -1.26132        2.51711       -0.10133
H         -3.36673        1.37532       -0.70382
H         -3.37600       -1.06088       -1.16657
H         -1.28006       -2.35986       -1.02161
H          4.96863       -0.29895        0.65713
H          5.57427        1.15580        1.43332
H          5.91062       -1.68099        2.50900
H          5.51472       -2.59129        4.78632
H          3.86438       -1.45870        6.28207
H          2.67478        0.56010        5.41612

--Link1--
%chk=JID_9515.chk
%mem=8GB
%nprocshared=4
# B3LYP/6-311++G(d,p) empiricaldispersion=gd3bj scf=xqc pop=npa geom=check

CID_15055621_JID_9515_Energie_neutraal

0 1

--Link1--
%chk=JID_9515.chk
%mem=8GB
%nprocshared=4
# B3LYP/6-311++G(d,p) empiricaldispersion=gd3bj scf=xqc pop=npa geom=check

CID_15055621_JID_9515_Energie_kation

1 2

--Link1--
%chk=JID_9515.chk
%mem=8GB
%nprocshared=4
# B3LYP/6-311++G(d,p) empiricaldispersion=gd3bj scf=xqc pop=npa geom=check

CID_15055621_JID_9515_Energie_anion

-1 2
