%chk=JID_9283.chk
%mem=8GB
%nprocshared=4
# opt freq B3LYP/6-31G(d) empiricaldispersion=gd3bj scf=xqc

CID_103303015_JID_9283_neutraal

0 1
C          2.53200        1.02100        0.00000
C          1.11954        0.53491        0.12484
C          0.12990        1.38190        0.59001
C         -1.15111        0.86605        0.64829
N         -1.43255       -0.39747        0.27891
C         -0.39157       -1.15097       -0.07189
N          0.86621       -0.73790       -0.24003
N         -0.63952       -2.40498       -0.62897
S         -1.67436       -3.38051        0.27545
O         -1.58732       -4.69227       -0.34236
O         -1.31133       -3.21845        1.67145
C         -3.32986       -2.75880       -0.02000
C         -3.72790       -2.23289       -1.25523
C         -5.08063       -1.88320       -1.34554
C         -5.92288       -1.97408       -0.23651
C         -5.40302       -2.45903        0.94911
N         -4.12833       -2.86297        1.08704
N         -2.97240       -2.24992       -2.43851
C         -2.29164        1.71374        1.12385
H          2.58241        1.85992       -0.70078
H          2.90884        1.34348        0.97541
H          3.18628        0.22598       -0.37200
H          0.34599        2.40143        0.88504
H          0.22568       -2.89672       -0.82969
H         -5.49436       -1.53905       -2.29026
H         -6.96650       -1.68749       -0.30579
H         -6.02034       -2.55185        1.83808
H         -1.96548       -2.19671       -2.28190
H         -3.27209       -1.56933       -3.13020
H         -2.10787        2.05572        2.14703
H         -2.41528        2.58269        0.47037
H         -3.22809        1.14632        1.11789

--Link1--
%chk=JID_9283.chk
%mem=8GB
%nprocshared=4
# B3LYP/6-311++G(d,p) empiricaldispersion=gd3bj scf=xqc pop=npa geom=check

CID_103303015_JID_9283_Energie_neutraal

0 1

--Link1--
%chk=JID_9283.chk
%mem=8GB
%nprocshared=4
# B3LYP/6-311++G(d,p) empiricaldispersion=gd3bj scf=xqc pop=npa geom=check

CID_103303015_JID_9283_Energie_kation

1 2

--Link1--
%chk=JID_9283.chk
%mem=8GB
%nprocshared=4
# B3LYP/6-311++G(d,p) empiricaldispersion=gd3bj scf=xqc pop=npa geom=check

CID_103303015_JID_9283_Energie_anion

-1 2
