%chk=JID_6142.chk
%mem=8GB
%nprocshared=4
# opt freq B3LYP/6-31G(d) empiricaldispersion=gd3bj scf=xqc

CID_101312443_JID_6142_neutraal

0 1
C          1.07258        0.03305        0.06033
C          0.84920       -0.06180        1.56322
C          1.32496        1.17383        2.33211
C          0.52109        2.40764        2.02803
C         -0.25387        3.02861        2.93186
C         -1.03382        4.24316        2.65663
C         -1.17760        5.20201        3.66848
C         -1.93593        6.36263        3.47067
C         -2.58078        6.55262        2.25107
C         -2.45806        5.59806        1.23806
C         -1.69208        4.44883        1.44030
O         -1.97435        7.19974        4.54932
C         -2.52971        8.50872        4.39959
C         -1.51105        9.44658        3.83891
C         -1.61653       10.02842        2.45258
O         -2.00459       10.77667        3.61178
H          0.46932        0.82880       -0.38667
H          0.78930       -0.90846       -0.42118
H          2.12541        0.22647       -0.16838
H         -0.21407       -0.24332        1.76172
H          1.39505       -0.93563        1.93904
H          1.28182        0.95070        3.40548
H          2.37793        1.37432        2.10043
H          0.61876        2.81035        1.02270
H         -0.32032        2.64617        3.94824
H         -0.68593        5.05677        4.62843
H         -3.20207        7.41778        2.05413
H         -2.97145        5.74370        0.29083
H         -1.63058        3.71009        0.64495
H         -3.47799        8.50301        3.85142
H         -2.77627        8.84775        5.41250
H         -0.53954        9.35155        4.30513
H         -0.70131       10.31975        1.95189
H         -2.40473        9.69789        1.78987

--Link1--
%chk=JID_6142.chk
%mem=8GB
%nprocshared=4
# B3LYP/6-311++G(d,p) empiricaldispersion=gd3bj scf=xqc pop=npa geom=check

CID_101312443_JID_6142_Energie_neutraal

0 1

--Link1--
%chk=JID_6142.chk
%mem=8GB
%nprocshared=4
# B3LYP/6-311++G(d,p) empiricaldispersion=gd3bj scf=xqc pop=npa geom=check

CID_101312443_JID_6142_Energie_kation

1 2

--Link1--
%chk=JID_6142.chk
%mem=8GB
%nprocshared=4
# B3LYP/6-311++G(d,p) empiricaldispersion=gd3bj scf=xqc pop=npa geom=check

CID_101312443_JID_6142_Energie_anion

-1 2
