%chk=JID_7951.chk
%mem=8GB
%nprocshared=4
# opt freq B3LYP/6-31G(d) empiricaldispersion=gd3bj scf=xqc

CID_78969547_JID_7951_neutraal

0 1
C          0.93184       -0.02478        0.06885
C          0.20112        1.26358       -0.28323
C          1.02763        2.14678       -1.21585
O          0.36106        2.40635       -2.44754
C          0.72012        1.64585       -3.62591
C         -0.04390        0.30072       -3.62233
C          0.71276       -0.82801       -4.31999
C          2.08045       -0.96548       -3.70791
C          2.62020       -2.21849       -3.40201
C          3.88986       -2.31239       -2.83284
C          4.63085       -1.15856       -2.58142
C          4.10647        0.09384       -2.90098
C          2.82633        0.19801       -3.45572
C          2.25184        1.53759       -3.85659
C          0.19595        2.51406       -4.79296
O         -0.08711        3.70279       -4.77228
O          0.10811        1.85133       -5.96936
H          1.12675       -0.63231       -0.81785
H          0.32946       -0.62236        0.76038
H          1.88947        0.18867        0.55490
H         -0.78310        1.03805       -0.70641
H          0.02282        1.80672        0.65309
H          1.12899        3.12715       -0.73526
H          2.04580        1.77659       -1.34412
H         -0.25413       -0.01687       -2.59803
H         -1.03324        0.41280       -4.08460
H          0.14525       -1.75921       -4.20686
H          0.81543       -0.63820       -5.39403
H          2.05504       -3.12635       -3.59850
H          4.30411       -3.28732       -2.58925
H          5.62258       -1.23619       -2.14339
H          4.70192        0.98423       -2.71399
H          2.50102        1.66087       -4.91945
H          2.77278        2.34918       -3.33383
H         -0.21673        2.54027       -6.58798

--Link1--
%chk=JID_7951.chk
%mem=8GB
%nprocshared=4
# B3LYP/6-311++G(d,p) empiricaldispersion=gd3bj scf=xqc pop=npa geom=check

CID_78969547_JID_7951_Energie_neutraal

0 1

--Link1--
%chk=JID_7951.chk
%mem=8GB
%nprocshared=4
# B3LYP/6-311++G(d,p) empiricaldispersion=gd3bj scf=xqc pop=npa geom=check

CID_78969547_JID_7951_Energie_kation

1 2

--Link1--
%chk=JID_7951.chk
%mem=8GB
%nprocshared=4
# B3LYP/6-311++G(d,p) empiricaldispersion=gd3bj scf=xqc pop=npa geom=check

CID_78969547_JID_7951_Energie_anion

-1 2
