%chk=JID_4632.chk
%mem=8GB
%nprocshared=4
# opt freq B3LYP/6-31G(d) empiricaldispersion=gd3bj scf=xqc

CID_21630360_JID_4632_neutraal

0 1
C         -2.59400       -1.10300       -0.06500
C         -1.17981       -0.63711       -0.05576
C         -0.68824        0.61791       -0.12217
C          0.77203        0.56262       -0.13333
C          1.17075       -0.72319       -0.07377
C         -0.03914       -1.63507       -0.00374
C         -0.06294       -2.50644        1.22235
C         -0.12490       -3.85187        1.26529
C         -0.12874       -4.32375        2.68903
C         -0.05839       -3.03172        3.44455
C         -0.02193       -2.00496        2.58405
C          2.54657       -1.29196       -0.10429
C          1.60758        1.79435       -0.21527
C         -1.43189        1.90770       -0.19196
H         -2.74646       -1.82817       -0.87090
H         -2.84950       -1.58336        0.88438
H         -3.30255       -0.28615       -0.22351
H         -0.06877       -2.25453       -0.91031
H         -0.16714       -4.50793        0.40896
H         -1.04760       -4.86937        2.92222
H          0.74047       -4.95355        2.89919
H         -0.04033       -2.94962        4.52047
H          0.03029       -0.95684        2.84030
H          2.78019       -1.79109        0.84102
H          2.63307       -2.02538       -0.91250
H          3.31105       -0.52946       -0.27330
H          2.67834        1.57492       -0.19785
H          1.39990        2.33957       -1.14181
H          1.39967        2.45691        0.63142
H         -1.16288        2.55263        0.65111
H         -1.19887        2.43670       -1.12185
H         -2.51548        1.76742       -0.15803

--Link1--
%chk=JID_4632.chk
%mem=8GB
%nprocshared=4
# B3LYP/6-311++G(d,p) empiricaldispersion=gd3bj scf=xqc pop=npa geom=check

CID_21630360_JID_4632_Energie_neutraal

0 1

--Link1--
%chk=JID_4632.chk
%mem=8GB
%nprocshared=4
# B3LYP/6-311++G(d,p) empiricaldispersion=gd3bj scf=xqc pop=npa geom=check

CID_21630360_JID_4632_Energie_kation

1 2

--Link1--
%chk=JID_4632.chk
%mem=8GB
%nprocshared=4
# B3LYP/6-311++G(d,p) empiricaldispersion=gd3bj scf=xqc pop=npa geom=check

CID_21630360_JID_4632_Energie_anion

-1 2
