%chk=JID_5035.chk
%mem=8GB
%nprocshared=4
# opt freq B3LYP/6-31G(d) empiricaldispersion=gd3bj scf=xqc

CID_105195138_JID_5035_neutraal

0 1
C          1.09659        0.02388       -0.01005
C          0.33184       -1.05746       -0.20637
C         -1.14195       -1.00471       -0.48953
C         -1.50566       -1.45075       -1.91013
C         -1.11434       -2.88890       -2.28385
C         -1.70790       -4.00011       -1.38857
C         -3.26119       -4.05420       -1.40312
C         -3.91538       -4.41669       -2.72001
C         -4.31742       -3.42592       -3.62539
C         -4.91183       -3.77263       -4.84045
C         -5.11616       -5.11261       -5.16184
C         -4.73110       -6.10742       -4.26629
C         -4.13757       -5.76132       -3.05151
N         -1.06229       -5.27123       -1.80146
N         -1.25655       -6.28498       -0.78775
H          0.68857        1.02886       -0.05338
H          2.15758       -0.07744        0.19734
H          0.79190       -2.04200       -0.14607
H         -1.66774       -1.61764        0.25078
H         -1.51351        0.01830       -0.34769
H         -2.58286       -1.31219       -2.04792
H         -1.02453       -0.77247       -2.62721
H         -1.39853       -3.06061       -3.33002
H         -0.01850       -2.96148       -2.26705
H         -1.39437       -3.78897       -0.35817
H         -3.60197       -4.77363       -0.64559
H         -3.66563       -3.09343       -1.06049
H         -4.17545       -2.37411       -3.39320
H         -5.21778       -2.99504       -5.53551
H         -5.57960       -5.38109       -6.10729
H         -4.89479       -7.15340       -4.51116
H         -3.84599       -6.54896       -2.35866
H         -1.46344       -5.55124       -2.70514
H         -0.82627       -7.16773       -1.08146
H         -0.75446       -6.03477        0.07032

--Link1--
%chk=JID_5035.chk
%mem=8GB
%nprocshared=4
# B3LYP/6-311++G(d,p) empiricaldispersion=gd3bj scf=xqc pop=npa geom=check

CID_105195138_JID_5035_Energie_neutraal

0 1

--Link1--
%chk=JID_5035.chk
%mem=8GB
%nprocshared=4
# B3LYP/6-311++G(d,p) empiricaldispersion=gd3bj scf=xqc pop=npa geom=check

CID_105195138_JID_5035_Energie_kation

1 2

--Link1--
%chk=JID_5035.chk
%mem=8GB
%nprocshared=4
# B3LYP/6-311++G(d,p) empiricaldispersion=gd3bj scf=xqc pop=npa geom=check

CID_105195138_JID_5035_Energie_anion

-1 2
