%chk=JID_7063.chk
%mem=8GB
%nprocshared=4
# opt freq B3LYP/6-31G(d) empiricaldispersion=gd3bj scf=xqc

CID_84085453_JID_7063_neutraal

0 1
C         -0.76900        1.02600        1.21500
C          0.74047        0.78329        1.04820
C          1.18981        1.32982       -0.31770
C          0.42993        0.61511       -1.45508
C         -1.07844        0.86561       -1.26602
C         -1.54249        0.31328        0.09217
C         -1.25038       -1.19498        0.16103
C          0.25770       -1.45364       -0.02232
C          1.01780       -0.72882        1.10736
C          0.75418       -0.90295       -1.38720
C          0.19587       -1.71994       -2.57302
C          0.81730       -1.35858       -3.88084
N          0.12925       -0.64957       -4.78543
O          0.98491       -0.49747       -5.86561
C          2.16793       -1.11005       -5.59705
C          2.11304       -1.67607       -4.35221
N          3.12636       -1.05588       -6.53223
H         -0.98079        2.10206        1.19200
H         -1.10237        0.65712        2.19280
H          1.28791        1.29207        1.84937
H          2.27040        1.18708       -0.44150
H          1.00590        2.41025       -0.36693
H          0.75553        1.03697       -2.41211
H         -1.65324        0.40560       -2.07707
H         -1.28315        1.94254       -1.31664
H         -2.61686        0.48890        0.21619
H         -1.57821       -1.59160        1.13031
H         -1.83091       -1.72697       -0.60053
H          0.45763       -2.52947        0.04417
H          2.09470       -0.91622        1.01524
H          0.70941       -1.12794        2.08160
H          1.84852       -1.01360       -1.41105
H          0.39166       -2.78531       -2.39215
H         -0.89276       -1.62720       -2.64794
H          2.88803       -2.23504       -3.85269
H          3.01129       -0.39882       -7.29808
H          4.09176       -1.24953       -6.29128

--Link1--
%chk=JID_7063.chk
%mem=8GB
%nprocshared=4
# B3LYP/6-311++G(d,p) empiricaldispersion=gd3bj scf=xqc pop=npa geom=check

CID_84085453_JID_7063_Energie_neutraal

0 1

--Link1--
%chk=JID_7063.chk
%mem=8GB
%nprocshared=4
# B3LYP/6-311++G(d,p) empiricaldispersion=gd3bj scf=xqc pop=npa geom=check

CID_84085453_JID_7063_Energie_kation

1 2

--Link1--
%chk=JID_7063.chk
%mem=8GB
%nprocshared=4
# B3LYP/6-311++G(d,p) empiricaldispersion=gd3bj scf=xqc pop=npa geom=check

CID_84085453_JID_7063_Energie_anion

-1 2
