%chk=JID_1397.chk
%mem=8GB
%nprocshared=4
# opt freq B3LYP/6-31G(d) empiricaldispersion=gd3bj scf=xqc

CID_97539686_JID_1397_neutraal

0 1
C         -1.40624        1.06933       -3.71624
C         -1.70740       -0.40633       -3.46004
C         -1.10315       -1.23155       -4.60671
C         -1.16307       -0.94463       -2.11290
C         -1.85195       -0.52157       -0.78515
C         -1.53262        0.91963       -0.34574
C         -2.87440        1.52256        0.02685
C         -3.85270        0.76602       -0.84131
N         -3.33366       -0.60292       -0.88356
C         -1.38464       -1.52348        0.32255
O         -2.09450       -1.33146        1.54938
H         -0.34508        1.29216       -3.56328
H         -1.99566        1.72108       -3.06861
H         -1.66025        1.34593       -4.74576
H         -2.79295       -0.55232       -3.50137
H         -0.01219       -1.13571       -4.63235
H         -1.34922       -2.29312       -4.49670
H         -1.49613       -0.90238       -5.57471
H         -1.22299       -2.04109       -2.17315
H         -0.09118       -0.71301       -2.04284
H         -0.83894        0.97239        0.50062
H         -1.07593        1.50468       -1.14633
H         -3.08785        1.34554        1.08758
H         -2.90569        2.60168       -0.14987
H         -4.86889        0.79550       -0.43639
H         -3.88754        1.18215       -1.85287
H         -3.66118       -1.08497       -0.03759
H         -1.57162       -2.55797        0.01322
H         -0.31180       -1.42369        0.52238
H         -1.80380       -0.48475        1.92693

--Link1--
%chk=JID_1397.chk
%mem=8GB
%nprocshared=4
# B3LYP/6-311++G(d,p) empiricaldispersion=gd3bj scf=xqc pop=npa geom=check

CID_97539686_JID_1397_Energie_neutraal

0 1

--Link1--
%chk=JID_1397.chk
%mem=8GB
%nprocshared=4
# B3LYP/6-311++G(d,p) empiricaldispersion=gd3bj scf=xqc pop=npa geom=check

CID_97539686_JID_1397_Energie_kation

1 2

--Link1--
%chk=JID_1397.chk
%mem=8GB
%nprocshared=4
# B3LYP/6-311++G(d,p) empiricaldispersion=gd3bj scf=xqc pop=npa geom=check

CID_97539686_JID_1397_Energie_anion

-1 2
