%chk=JID_4437.chk
%mem=8GB
%nprocshared=4
# opt freq B3LYP/6-31G(d) empiricaldispersion=gd3bj scf=xqc

CID_131052025_JID_4437_neutraal

0 1
C          0.98297       -0.06993        0.06942
C          1.13004        1.12888        0.98250
C          1.78063        2.30615        0.28964
O          1.14886        3.13630       -0.35557
C          3.23913        2.47905        0.44353
C          4.12606        1.50092       -0.00755
C          5.50879        1.67350        0.16038
C          6.00049        2.83947        0.77337
C          5.09193        3.81683        1.21295
C          3.71684        3.64544        1.03867
S          7.73625        3.15154        1.08408
C          8.30302        3.46869       -0.60978
C          6.37272        0.62732       -0.30683
N          7.03809       -0.23181       -0.71408
H          0.58927        0.21817       -0.91067
H          0.29832       -0.79999        0.51295
H          1.93933       -0.57522       -0.08758
H          0.14235        1.46180        1.32404
H          1.69392        0.86426        1.88349
H          3.75468        0.61110       -0.50958
H          5.44954        4.72449        1.69746
H          3.02493        4.41580        1.37442
H          8.30496        2.54940       -1.19990
H          7.66624        4.21168       -1.09747
H          9.32502        3.85512       -0.57499

--Link1--
%chk=JID_4437.chk
%mem=8GB
%nprocshared=4
# B3LYP/6-311++G(d,p) empiricaldispersion=gd3bj scf=xqc pop=npa geom=check

CID_131052025_JID_4437_Energie_neutraal

0 1

--Link1--
%chk=JID_4437.chk
%mem=8GB
%nprocshared=4
# B3LYP/6-311++G(d,p) empiricaldispersion=gd3bj scf=xqc pop=npa geom=check

CID_131052025_JID_4437_Energie_kation

1 2

--Link1--
%chk=JID_4437.chk
%mem=8GB
%nprocshared=4
# B3LYP/6-311++G(d,p) empiricaldispersion=gd3bj scf=xqc pop=npa geom=check

CID_131052025_JID_4437_Energie_anion

-1 2
