%chk=JID_3318.chk
%mem=8GB
%nprocshared=4
# opt freq B3LYP/6-31G(d) empiricaldispersion=gd3bj scf=xqc

CID_117560517_JID_3318_neutraal

0 1
C          0.97969       -0.06171        0.07602
C         -0.14288        0.32576       -0.89876
C         -0.11461       -0.63883       -2.08958
C         -1.48024        0.27198       -0.15174
O          0.17612        1.67595       -1.31589
C         -0.63465        2.33565       -2.16878
O         -1.65986        1.94776       -2.69879
C         -0.03693        3.72359       -2.43694
O          0.00699        4.56647       -1.54964
N          0.44725        3.95558       -3.70842
C          0.38482        3.04071       -4.79787
C          1.46471        3.03215       -5.84447
C          1.33734        1.88117       -4.89116
H          0.85017       -1.07796        0.46281
H          1.01408        0.63059        0.92538
H          1.95891        0.00057       -0.41301
H         -0.20796       -1.67977       -1.76195
H         -0.92830       -0.44141       -2.79408
H          0.81953       -0.53352       -2.65272
H         -1.51568        1.03155        0.63729
H         -2.32741        0.46908       -0.81561
H         -1.64325       -0.71102        0.30318
H          0.80465        4.89122       -3.85984
H         -0.63022        2.87795       -5.15743
H          1.16910        2.87224       -6.87528
H          2.31489        3.69351       -5.72530
H          2.09991        1.76974       -4.12895
H          0.95203        0.94260       -5.27345

--Link1--
%chk=JID_3318.chk
%mem=8GB
%nprocshared=4
# B3LYP/6-311++G(d,p) empiricaldispersion=gd3bj scf=xqc pop=npa geom=check

CID_117560517_JID_3318_Energie_neutraal

0 1

--Link1--
%chk=JID_3318.chk
%mem=8GB
%nprocshared=4
# B3LYP/6-311++G(d,p) empiricaldispersion=gd3bj scf=xqc pop=npa geom=check

CID_117560517_JID_3318_Energie_kation

1 2

--Link1--
%chk=JID_3318.chk
%mem=8GB
%nprocshared=4
# B3LYP/6-311++G(d,p) empiricaldispersion=gd3bj scf=xqc pop=npa geom=check

CID_117560517_JID_3318_Energie_anion

-1 2
