%chk=JID_9567.chk
%mem=8GB
%nprocshared=4
# opt freq B3LYP/6-31G(d) empiricaldispersion=gd3bj scf=xqc

CID_80792013_JID_9567_neutraal

0 1
C          1.06983        0.06117        0.03718
C         -0.15081       -0.53846        0.72005
C         -0.49440        0.13104        2.05765
C         -0.93649        1.57324        1.92636
C         -0.07332        2.63658        2.21446
N         -0.40464        3.90966        1.94970
C         -1.60020        4.11685        1.39772
N         -2.50962        3.18436        1.10996
C         -2.18725        1.91176        1.39300
N         -3.13809        0.92239        1.11778
C         -3.93580        1.11882       -0.09678
C         -5.23221        1.88048        0.16416
C         -6.02548        1.24072        1.29844
C         -5.18673        1.09680        2.57685
C         -3.85510        0.38776        2.28383
C         -4.97981        2.42520        3.31415
O         -6.22122        2.89673        3.83492
N          1.20033        2.37627        2.75880
C          2.02385        3.55158        2.99404
H          0.89054        1.09593       -0.26956
H          1.31593       -0.51282       -0.86201
H          1.94106        0.04033        0.69942
H         -1.00225       -0.49711        0.03183
H          0.04712       -1.60065        0.90879
H         -1.28122       -0.45121        2.54817
H          0.36209        0.03320        2.73349
H         -1.86109        5.14317        1.16635
H         -4.18579        0.12584       -0.49236
H         -3.35374        1.61186       -0.88601
H         -5.83959        1.88337       -0.74842
H         -5.02510        2.92935        0.40021
H         -6.93767        1.81703        1.48639
H         -6.35342        0.24290        0.97840
H         -5.76082        0.45216        3.25729
H         -3.23309        0.38193        3.18724
H         -4.07095       -0.66715        2.06852
H         -4.30905        2.28641        4.16820
H         -4.56026        3.21050        2.68312
H         -6.69370        3.32852        3.10278
H          1.08809        1.82756        3.60604
H          1.56322        4.22804        3.72235
H          2.98766        3.23241        3.40363
H          2.22853        4.09195        2.06338

--Link1--
%chk=JID_9567.chk
%mem=8GB
%nprocshared=4
# B3LYP/6-311++G(d,p) empiricaldispersion=gd3bj scf=xqc pop=npa geom=check

CID_80792013_JID_9567_Energie_neutraal

0 1

--Link1--
%chk=JID_9567.chk
%mem=8GB
%nprocshared=4
# B3LYP/6-311++G(d,p) empiricaldispersion=gd3bj scf=xqc pop=npa geom=check

CID_80792013_JID_9567_Energie_kation

1 2

--Link1--
%chk=JID_9567.chk
%mem=8GB
%nprocshared=4
# B3LYP/6-311++G(d,p) empiricaldispersion=gd3bj scf=xqc pop=npa geom=check

CID_80792013_JID_9567_Energie_anion

-1 2
