%chk=JID_6543.chk
%mem=8GB
%nprocshared=4
# opt freq B3LYP/6-31G(d) empiricaldispersion=gd3bj scf=xqc

CID_152802865_JID_6543_neutraal

0 1
C          1.08771        0.04605        0.01365
C          0.91122        1.36695        0.73834
C          2.19281        1.84616        1.39075
O          2.23377        2.11745        2.59079
C          3.40426        2.03605        0.51198
C          4.57332        1.51479        0.94368
C          4.86389        0.74894        2.20543
N          5.62983       -0.47304        1.90648
C          4.80598       -1.52393        1.26433
C          3.82139       -2.22969        2.21363
O          4.49513       -2.77535        3.35337
C          5.20575       -1.74931        4.05699
C          6.22041       -1.04598        3.13885
C          3.27805        2.70529       -0.80123
C          2.56091        4.02845       -0.90114
C          4.05123        3.97635       -1.05479
H          1.74221        0.14432       -0.85723
H          0.11947       -0.32409       -0.33784
H          1.52207       -0.71034        0.67450
H          0.53279        2.14103        0.06398
H          0.16390        1.23748        1.53031
H          5.44706        1.64990        0.30660
H          5.47777        1.41372        2.82672
H          3.96916        0.51548        2.78490
H          5.50000       -2.27856        0.87114
H          4.26993       -1.13094        0.39333
H          3.02765       -1.55547        2.55359
H          3.33993       -3.06116        1.68863
H          5.73324       -2.22785        4.88840
H          4.48782       -1.04209        4.48762
H          6.97046       -1.78398        2.82566
H          6.76717       -0.27797        3.69842
H          3.17601        2.02216       -1.63984
H          1.96555        4.21576       -1.78809
H          2.16760        4.49345       -0.00342
H          4.65340        4.39818       -0.25724
H          4.46632        4.12729       -2.04498

--Link1--
%chk=JID_6543.chk
%mem=8GB
%nprocshared=4
# B3LYP/6-311++G(d,p) empiricaldispersion=gd3bj scf=xqc pop=npa geom=check

CID_152802865_JID_6543_Energie_neutraal

0 1

--Link1--
%chk=JID_6543.chk
%mem=8GB
%nprocshared=4
# B3LYP/6-311++G(d,p) empiricaldispersion=gd3bj scf=xqc pop=npa geom=check

CID_152802865_JID_6543_Energie_kation

1 2

--Link1--
%chk=JID_6543.chk
%mem=8GB
%nprocshared=4
# B3LYP/6-311++G(d,p) empiricaldispersion=gd3bj scf=xqc pop=npa geom=check

CID_152802865_JID_6543_Energie_anion

-1 2
