%chk=JID_10725.chk
%mem=8GB
%nprocshared=4
# opt freq B3LYP/6-31G(d) empiricaldispersion=gd3bj scf=xqc

CID_71277125_JID_10725_neutraal

0 1
C         -0.71700        1.22600        0.24100
C          0.81874        1.22205        0.25653
O          1.32761        0.24638        1.17039
C          0.86909       -1.06059        0.79859
C         -0.66849       -1.13610        0.78964
N         -1.34750       -0.08266        0.02014
C         -1.67351       -0.40615       -1.37350
C         -0.57427       -0.85082       -2.36648
N         -0.13165       -2.21713       -2.09163
C          0.67581       -2.80395       -3.05848
N          0.27925       -4.02020       -3.47010
C          1.05385       -4.65913       -4.38287
C          2.22410       -4.14680       -4.93481
C          2.61252       -2.88646       -4.48115
C          1.83842       -2.21240       -3.53274
C          3.01946       -4.87857       -5.91811
C          4.34195       -4.75667       -6.31100
N          4.66767       -5.66203       -7.28769
C          3.56727       -6.33893       -7.50589
N          2.54720       -5.90433       -6.70959
H         -1.05397        1.56827        1.22836
H         -1.08373        1.97187       -0.47370
H          1.23753        1.04010       -0.73816
H          1.18254        2.20052        0.58703
H          1.26374       -1.76659        1.53662
H          1.31017       -1.32175       -0.16643
H         -1.00195       -1.01469        1.82895
H         -1.00705       -2.13461        0.49134
H         -2.44557       -1.18732       -1.35145
H         -2.17967        0.46469       -1.81093
H         -1.00215       -0.80590       -3.37676
H          0.26287       -0.14800       -2.33772
H         -0.91139       -2.86668       -1.98628
H          0.68265       -5.64495       -4.64564
H          3.51782       -2.41188       -4.84998
H          2.16373       -1.24726       -3.16159
H          5.08437       -4.06417       -5.93491
H          3.44721       -7.14287       -8.22010
H          1.60591       -6.26899       -6.72320

--Link1--
%chk=JID_10725.chk
%mem=8GB
%nprocshared=4
# B3LYP/6-311++G(d,p) empiricaldispersion=gd3bj scf=xqc pop=npa geom=check

CID_71277125_JID_10725_Energie_neutraal

0 1

--Link1--
%chk=JID_10725.chk
%mem=8GB
%nprocshared=4
# B3LYP/6-311++G(d,p) empiricaldispersion=gd3bj scf=xqc pop=npa geom=check

CID_71277125_JID_10725_Energie_kation

1 2

--Link1--
%chk=JID_10725.chk
%mem=8GB
%nprocshared=4
# B3LYP/6-311++G(d,p) empiricaldispersion=gd3bj scf=xqc pop=npa geom=check

CID_71277125_JID_10725_Energie_anion

-1 2
