%chk=JID_10121.chk
%mem=8GB
%nprocshared=4
# opt freq B3LYP/6-31G(d) empiricaldispersion=gd3bj scf=xqc

CID_102931734_JID_10121_neutraal

0 1
C         -1.34600        0.05300        0.55000
C         -0.66322        1.09740       -0.35239
C          0.45566        0.05414       -0.61849
C         -0.58136       -1.03688       -0.22290
C          0.93694       -0.01507       -2.07478
N          1.90810       -1.12237       -2.21716
S          2.84506       -1.17504       -3.61651
O          3.49803        0.10929       -3.74751
O          3.60832       -2.40184       -3.59671
C          1.65290       -1.31609       -4.92009
C          0.91251       -2.48804       -5.09608
C          0.02687       -2.58164       -6.17681
C         -0.10073       -1.51725       -7.07426
C          0.67950       -0.36677       -6.93623
C          1.52346       -0.25508       -5.82947
N          0.44839        0.74103       -7.75588
C          0.94918       -3.59381       -4.12159
O          0.88520       -3.47120       -2.91253
O          1.04584       -4.78317       -4.73373
O          1.60034        0.14648        0.26639
H         -1.05691        0.12789        1.60456
H         -2.43576        0.00706        0.48245
H         -0.35017        2.01309        0.15707
H         -1.25142        1.37011       -1.23632
H         -1.14440       -1.45991       -1.06298
H         -0.19978       -1.85707        0.39177
H          0.09155       -0.17878       -2.75127
H          1.41521        0.93460       -2.33748
H          1.52985       -2.06361       -2.02296
H         -0.58504       -3.47107       -6.31411
H         -0.82029       -1.59511       -7.88646
H          2.09329        0.66105       -5.68376
H          1.22472        1.39576       -7.80415
H          0.09143        0.51130       -8.67902
H          1.13335       -5.44088       -4.01162
H          2.25482       -0.46105       -0.13328

--Link1--
%chk=JID_10121.chk
%mem=8GB
%nprocshared=4
# B3LYP/6-311++G(d,p) empiricaldispersion=gd3bj scf=xqc pop=npa geom=check

CID_102931734_JID_10121_Energie_neutraal

0 1

--Link1--
%chk=JID_10121.chk
%mem=8GB
%nprocshared=4
# B3LYP/6-311++G(d,p) empiricaldispersion=gd3bj scf=xqc pop=npa geom=check

CID_102931734_JID_10121_Energie_kation

1 2

--Link1--
%chk=JID_10121.chk
%mem=8GB
%nprocshared=4
# B3LYP/6-311++G(d,p) empiricaldispersion=gd3bj scf=xqc pop=npa geom=check

CID_102931734_JID_10121_Energie_anion

-1 2
