%chk=JID_9024.chk
%mem=8GB
%nprocshared=4
# opt freq B3LYP/6-31G(d) empiricaldispersion=gd3bj scf=xqc

CID_42691824_JID_9024_neutraal

0 1
C          2.49200        0.00400       -0.01400
C          1.02833       -0.09082       -0.32806
C          0.34179       -1.30110       -0.14904
C         -1.01211       -1.42306       -0.49926
C         -1.67051       -0.31006       -1.04086
C         -0.99639        0.89887       -1.21958
C          0.34909        1.00534       -0.87073
C         -1.73244       -2.67822       -0.33986
N         -2.81121       -3.11327       -0.95370
C         -2.99368       -4.34932       -0.37862
N         -2.10026       -4.66701        0.56955
O         -1.25222       -3.55721        0.59101
C         -4.08001       -5.27510       -0.82826
N         -3.51669       -6.33292       -1.67943
C         -4.54220       -7.10407       -2.37504
C         -5.11172       -6.43055       -3.63398
C         -4.08440       -6.06110       -4.72470
C         -3.28101       -7.26942       -5.20749
C         -4.79991       -5.40919       -5.91124
H          2.76457       -0.68177        0.79508
H          3.08176       -0.24460       -0.90165
H          2.75512        1.01469        0.31538
H          0.87834       -2.16018        0.25159
H         -2.71871       -0.38142       -1.32677
H         -1.51892        1.75503       -1.63887
H          0.86712        1.94885       -1.02994
H         -4.57098       -5.71808        0.04556
H         -4.82722       -4.68615       -1.37170
H         -2.86645       -5.91835       -2.34487
H         -4.10453       -8.06873       -2.65458
H         -5.36349       -7.34771       -1.68936
H         -5.85996       -7.10886       -4.06530
H         -5.66015       -5.52602       -3.34281
H         -3.38289       -5.31954       -4.32454
H         -3.94053       -8.06770       -5.56415
H         -2.61433       -6.98931       -6.03032
H         -2.65307       -7.67575       -4.40882
H         -5.34922       -4.51726       -5.59198
H         -4.08005       -5.09994       -6.67672
H         -5.51193       -6.09990       -6.37551

--Link1--
%chk=JID_9024.chk
%mem=8GB
%nprocshared=4
# B3LYP/6-311++G(d,p) empiricaldispersion=gd3bj scf=xqc pop=npa geom=check

CID_42691824_JID_9024_Energie_neutraal

0 1

--Link1--
%chk=JID_9024.chk
%mem=8GB
%nprocshared=4
# B3LYP/6-311++G(d,p) empiricaldispersion=gd3bj scf=xqc pop=npa geom=check

CID_42691824_JID_9024_Energie_kation

1 2

--Link1--
%chk=JID_9024.chk
%mem=8GB
%nprocshared=4
# B3LYP/6-311++G(d,p) empiricaldispersion=gd3bj scf=xqc pop=npa geom=check

CID_42691824_JID_9024_Energie_anion

-1 2
