%chk=JID_5962.chk
%mem=8GB
%nprocshared=4
# opt freq B3LYP/6-31G(d) empiricaldispersion=gd3bj scf=xqc

CID_142068954_JID_5962_neutraal

0 1
C          1.04217        0.08479       -0.03213
C         -0.06367       -0.90357       -0.42001
C         -0.83380       -1.48513        0.78325
C         -1.65502       -0.56187        1.70171
C         -3.08014       -0.11000        1.25228
C         -3.10085        1.22293        0.45048
N         -1.92874        1.46293       -0.38319
C         -1.80880        0.65990       -1.52006
C         -2.64999        0.92975       -2.61345
C         -2.62155        0.14714       -3.76570
C         -1.75756       -0.93540       -3.83478
C         -0.93521       -1.23348       -2.74801
C         -0.95017       -0.45236       -1.57063
C         -3.83387       -1.21492        0.48524
C         -3.90247        0.15408        2.54457
H          0.69182        0.94317        0.54214
H          1.55518        0.46502       -0.92250
H          1.79111       -0.41930        0.58979
H          0.50182       -1.76682       -0.80466
H         -0.07753       -1.95526        1.42953
H         -1.45777       -2.31989        0.44252
H         -1.05855        0.30622        2.00641
H         -1.78166       -1.14145        2.62850
H         -4.02532        1.31490       -0.13456
H         -3.12748        2.06348        1.15608
H         -1.08248        1.48744        0.16657
H         -3.32488        1.78139       -2.56867
H         -3.27127        0.38658       -4.60222
H         -1.72632       -1.55374       -4.72756
H         -0.28072       -2.09984       -2.82370
H         -3.85734       -2.14657        1.06224
H         -4.87388       -0.92345        0.29631
H         -3.38631       -1.43720       -0.48546
H         -3.41038        0.89827        3.18145
H         -4.90586        0.52680        2.30749
H         -4.02225       -0.76125        3.13576

--Link1--
%chk=JID_5962.chk
%mem=8GB
%nprocshared=4
# B3LYP/6-311++G(d,p) empiricaldispersion=gd3bj scf=xqc pop=npa geom=check

CID_142068954_JID_5962_Energie_neutraal

0 1

--Link1--
%chk=JID_5962.chk
%mem=8GB
%nprocshared=4
# B3LYP/6-311++G(d,p) empiricaldispersion=gd3bj scf=xqc pop=npa geom=check

CID_142068954_JID_5962_Energie_kation

1 2

--Link1--
%chk=JID_5962.chk
%mem=8GB
%nprocshared=4
# B3LYP/6-311++G(d,p) empiricaldispersion=gd3bj scf=xqc pop=npa geom=check

CID_142068954_JID_5962_Energie_anion

-1 2
