%chk=JID_7098.chk
%mem=8GB
%nprocshared=4
# opt freq B3LYP/6-31G(d) empiricaldispersion=gd3bj scf=xqc

CID_145587026_JID_7098_neutraal

0 1
C          0.93919        0.05149        0.06041
C          0.00970        1.04837        0.71406
C         -2.20572        0.21411       -2.57327
C         -2.79389       -0.79728       -1.61564
C          2.41569       -3.46278        0.03762
C          1.39473       -4.55273        0.01701
C          0.28464       -4.65365        0.76715
C         -0.23529       -3.67395        1.79642
C         -1.71753       -3.39316        1.53080
C         -0.05877       -4.24409        3.18550
C          0.59051       -3.70160        4.22916
C          1.20629       -2.42196        4.18457
C          0.63311       -1.15953        4.29422
C          1.62270       -0.12519        4.19521
C          2.89600       -0.62129        4.04756
S          2.91705       -2.32507        4.03661
C         -0.82281       -0.88144        4.48546
H          1.50420        0.52474       -0.74797
H          0.37343       -0.78606       -0.35816
H          1.65035       -0.34262        0.79154
H          0.57886        1.86822        1.16210
H         -0.68122        1.47081       -0.02115
H         -0.57816        0.56677        1.50024
H         -2.53531        1.22485       -2.31486
H         -2.52057        0.00057       -3.59904
H         -1.11265        0.18849       -2.53665
H         -2.48703       -0.57906       -0.58855
H         -3.88688       -0.77760       -1.65921
H         -2.45692       -1.80690       -1.86871
H          2.25188       -2.73188        0.83024
H          2.41637       -2.93589       -0.92134
H          3.40986       -3.89488        0.18996
H          1.60508       -5.35986       -0.68368
H         -0.32527       -5.54618        0.62423
H          0.28763       -2.71862        1.69927
H         -2.32484       -4.30372        1.59876
H         -2.11800       -2.67434        2.25327
H         -1.85971       -2.97151        0.52965
H         -0.49806       -5.22893        3.34228
H          0.66438       -4.25753        5.16055
H          1.40514        0.93537        4.23871
H          3.81758       -0.06363        3.95604
H         -0.96844        0.03525        5.06668
H         -1.31278       -0.75187        3.51621
H         -1.32167       -1.69410        5.02263

--Link1--
%chk=JID_7098.chk
%mem=8GB
%nprocshared=4
# B3LYP/6-311++G(d,p) empiricaldispersion=gd3bj scf=xqc pop=npa geom=check

CID_145587026_JID_7098_Energie_neutraal

0 1

--Link1--
%chk=JID_7098.chk
%mem=8GB
%nprocshared=4
# B3LYP/6-311++G(d,p) empiricaldispersion=gd3bj scf=xqc pop=npa geom=check

CID_145587026_JID_7098_Energie_kation

1 2

--Link1--
%chk=JID_7098.chk
%mem=8GB
%nprocshared=4
# B3LYP/6-311++G(d,p) empiricaldispersion=gd3bj scf=xqc pop=npa geom=check

CID_145587026_JID_7098_Energie_anion

-1 2
