%chk=JID_5266.chk
%mem=8GB
%nprocshared=4
# opt freq B3LYP/6-31G(d) empiricaldispersion=gd3bj scf=xqc

CID_14085333_JID_5266_neutraal

0 1
C          1.07234       -0.00738        0.06864
N          0.74682        1.29522        0.62267
C         -0.69458        1.55932        0.65622
C         -1.51683        0.73658        1.66970
C         -0.98588        0.76528        3.09046
C         -1.05873        1.89839        3.92601
C         -1.72746        3.15009        3.54188
C         -1.72961        4.21036        4.36022
C         -1.07425        4.16106        5.68529
O         -1.06864        5.14024        6.42188
N         -0.49630        2.97422        6.03626
C         -0.46962        1.84471        5.20601
C          0.15615        0.68775        5.66947
C          0.20273       -0.43859        4.85647
C         -0.36011       -0.39899        3.58106
H          0.69124       -0.10978       -0.95256
H          0.68227       -0.82784        0.67692
H          2.16024       -0.11896        0.02259
H          1.12692        1.36939        1.56758
H         -0.81173        2.62553        0.87640
H         -1.12098        1.42302       -0.34564
H         -2.55581        1.08938        1.67024
H         -1.57643       -0.30234        1.31983
H         -2.23584        3.21524        2.58868
H         -2.21321        5.14322        4.09967
H         -0.05989        2.95004        6.94719
H          0.60596        0.65226        6.65733
H          0.68361       -1.34723        5.21028
H         -0.29932       -1.29154        2.96021

--Link1--
%chk=JID_5266.chk
%mem=8GB
%nprocshared=4
# B3LYP/6-311++G(d,p) empiricaldispersion=gd3bj scf=xqc pop=npa geom=check

CID_14085333_JID_5266_Energie_neutraal

0 1

--Link1--
%chk=JID_5266.chk
%mem=8GB
%nprocshared=4
# B3LYP/6-311++G(d,p) empiricaldispersion=gd3bj scf=xqc pop=npa geom=check

CID_14085333_JID_5266_Energie_kation

1 2

--Link1--
%chk=JID_5266.chk
%mem=8GB
%nprocshared=4
# B3LYP/6-311++G(d,p) empiricaldispersion=gd3bj scf=xqc pop=npa geom=check

CID_14085333_JID_5266_Energie_anion

-1 2
