%chk=JID_5960.chk
%mem=8GB
%nprocshared=4
# opt freq B3LYP/6-31G(d) empiricaldispersion=gd3bj scf=xqc

CID_59734686_JID_5960_neutraal

0 1
C          0.93555        0.07445        0.01739
C          0.74138       -1.19043       -0.84721
C          1.60766       -2.30891       -0.23700
C         -0.74106       -1.59899       -0.76468
C          1.12801       -0.96332       -2.30338
C          1.47205        0.18983       -2.89597
C          1.78279        0.03898       -4.34510
C          1.48287       -1.43304       -4.63528
C          1.16171       -2.09688       -3.29318
C          3.17110        0.47409       -4.84366
O          3.24325        0.93566       -5.99248
C          4.45733        0.30717       -3.99158
C          4.45780        1.26233       -2.79026
C          4.66303       -1.13899       -3.53112
C          5.66968        0.68395       -4.87712
H          0.67193       -0.11898        1.06406
H          0.30169        0.90016       -0.32630
H          1.97749        0.41507        0.00186
H          1.37790       -2.45139        0.82552
H          1.43864       -3.27163       -0.73247
H          2.67531       -2.07319       -0.31714
H         -1.38892       -0.83670       -1.21337
H         -0.93300       -2.54569       -1.28175
H         -1.05688       -1.73038        0.27692
H          1.49466        1.15632       -2.40938
H          1.06235        0.66125       -4.89432
H          0.61194       -1.51099       -5.29895
H          2.30338       -1.94944       -5.14498
H          0.20148       -2.61859       -3.34876
H          1.93671       -2.82514       -3.03417
H          3.83168        0.89757       -1.97168
H          5.46574        1.37891       -2.37505
H          4.09442        2.25660       -3.07294
H          4.58874       -1.83778       -4.37136
H          5.65076       -1.27208       -3.07448
H          3.92882       -1.43916       -2.78078
H          5.72414        0.04759       -5.76826
H          5.60620        1.72457       -5.21698
H          6.61442        0.57242       -4.33250

--Link1--
%chk=JID_5960.chk
%mem=8GB
%nprocshared=4
# B3LYP/6-311++G(d,p) empiricaldispersion=gd3bj scf=xqc pop=npa geom=check

CID_59734686_JID_5960_Energie_neutraal

0 1

--Link1--
%chk=JID_5960.chk
%mem=8GB
%nprocshared=4
# B3LYP/6-311++G(d,p) empiricaldispersion=gd3bj scf=xqc pop=npa geom=check

CID_59734686_JID_5960_Energie_kation

1 2

--Link1--
%chk=JID_5960.chk
%mem=8GB
%nprocshared=4
# B3LYP/6-311++G(d,p) empiricaldispersion=gd3bj scf=xqc pop=npa geom=check

CID_59734686_JID_5960_Energie_anion

-1 2
