%chk=JID_5839.chk
%mem=8GB
%nprocshared=4
# opt freq B3LYP/6-31G(d) empiricaldispersion=gd3bj scf=xqc

CID_79810795_JID_5839_neutraal

0 1
C          0.99582       -0.07306       -0.06815
C          0.60615        0.00621       -1.54073
C          0.72400       -1.32112       -2.32248
C          0.01910       -2.51335       -1.66550
C          0.28997       -1.11102       -3.82383
O          1.17695       -1.08947       -4.69236
N         -1.03936       -0.92687       -4.18730
C         -2.19766       -1.00164       -3.31123
C         -1.33396       -0.79843       -5.61893
C         -1.10164        0.62208       -6.14038
C         -1.32403        0.73535       -7.64758
C         -1.50032        2.23081       -7.89410
C         -1.94152        2.83313       -6.55992
C         -2.08072        1.66012       -5.59630
N          2.17584       -1.69317       -2.34201
H          0.33626       -0.75025        0.48267
H          0.91114        0.91695        0.39219
H          2.02841       -0.41062        0.06073
H         -0.40942        0.40750       -1.59655
H          1.23300        0.76849       -2.02441
H         -0.97075       -2.25822       -1.28034
H         -0.10095       -3.34292       -2.37204
H          0.58310       -2.89483       -0.80492
H         -2.97617       -0.32149       -3.66832
H         -2.57907       -2.02659       -3.33357
H         -1.96745       -0.72504       -2.28712
H         -0.69290       -1.49671       -6.17158
H         -2.36645       -1.12130       -5.80172
H         -0.07826        0.94518       -5.90708
H         -0.48998        0.32158       -8.22293
H         -2.23488        0.20266       -7.94791
H         -2.23392        2.41638       -8.68530
H         -0.55379        2.68263       -8.21207
H         -2.87856        3.39122       -6.65197
H         -1.17704        3.53114       -6.19906
H         -3.10915        1.27984       -5.62424
H         -1.85451        1.95182       -4.56611
H          2.27147       -2.52259       -2.93369
H          2.65539       -0.97399       -2.89391

--Link1--
%chk=JID_5839.chk
%mem=8GB
%nprocshared=4
# B3LYP/6-311++G(d,p) empiricaldispersion=gd3bj scf=xqc pop=npa geom=check

CID_79810795_JID_5839_Energie_neutraal

0 1

--Link1--
%chk=JID_5839.chk
%mem=8GB
%nprocshared=4
# B3LYP/6-311++G(d,p) empiricaldispersion=gd3bj scf=xqc pop=npa geom=check

CID_79810795_JID_5839_Energie_kation

1 2

--Link1--
%chk=JID_5839.chk
%mem=8GB
%nprocshared=4
# B3LYP/6-311++G(d,p) empiricaldispersion=gd3bj scf=xqc pop=npa geom=check

CID_79810795_JID_5839_Energie_anion

-1 2
