%chk=JID_6929.chk
%mem=8GB
%nprocshared=4
# opt freq B3LYP/6-31G(d) empiricaldispersion=gd3bj scf=xqc

CID_62220435_JID_6929_neutraal

0 1
C          0.95136        0.01890        0.08531
C          0.04055        0.10844       -1.15881
C          0.25378       -1.11522       -2.05434
C         -1.43408        0.40749       -0.90802
C         -2.54843       -0.40176       -0.72703
N         -3.66144        0.43548       -0.85262
C         -3.17352        1.73532       -0.92999
N         -1.85085        1.71629       -0.99337
C         -3.97690        3.03277       -0.96453
C         -4.80258        3.14881       -2.25681
C         -4.86190        3.18151        0.28554
C         -2.99560        4.23571       -0.95395
C         -5.06559       -0.01441       -0.94671
C         -5.27527       -0.86782       -2.18692
C         -5.45514       -1.59988       -3.25077
N         -2.66235       -1.73316       -0.53045
H          0.65835       -0.82478        0.71935
H          0.86826        0.93096        0.68580
H          1.99959       -0.10987       -0.20273
H          0.41366        0.96687       -1.73729
H          0.04760       -2.04902       -1.52303
H         -0.38905       -1.07707       -2.94065
H          1.29299       -1.16065       -2.39901
H         -5.59307        2.39908       -2.32919
H         -5.29044        4.12844       -2.32389
H         -4.16665        3.03349       -3.14272
H         -4.26643        3.09488        1.20238
H         -5.35596        4.16020        0.30228
H         -5.65218        2.43033        0.34466
H         -2.36294        4.22872       -0.05801
H         -2.33248        4.22111       -1.82740
H         -3.53573        5.18975       -0.96825
H         -5.26744       -0.59446       -0.04010
H         -5.73711        0.83763       -0.96728
H         -5.59427       -2.19242       -4.12591
H         -3.51748       -2.24138       -0.73506
H         -1.83905       -2.32597       -0.58205

--Link1--
%chk=JID_6929.chk
%mem=8GB
%nprocshared=4
# B3LYP/6-311++G(d,p) empiricaldispersion=gd3bj scf=xqc pop=npa geom=check

CID_62220435_JID_6929_Energie_neutraal

0 1

--Link1--
%chk=JID_6929.chk
%mem=8GB
%nprocshared=4
# B3LYP/6-311++G(d,p) empiricaldispersion=gd3bj scf=xqc pop=npa geom=check

CID_62220435_JID_6929_Energie_kation

1 2

--Link1--
%chk=JID_6929.chk
%mem=8GB
%nprocshared=4
# B3LYP/6-311++G(d,p) empiricaldispersion=gd3bj scf=xqc pop=npa geom=check

CID_62220435_JID_6929_Energie_anion

-1 2
