%chk=JID_8212.chk
%mem=8GB
%nprocshared=4
# opt freq B3LYP/6-31G(d) empiricaldispersion=gd3bj scf=xqc

CID_104214570_JID_8212_neutraal

0 1
C          1.02702        0.00233       -0.09625
C          0.08109        1.19295       -0.04238
C          0.47631        2.36490       -0.89003
C          0.21796        3.70182       -0.65371
N          0.66834        4.58652       -1.61166
C          1.26039        3.92860       -2.58905
S          1.30051        2.21575       -2.38572
C          1.93211        4.61185       -3.77765
C          3.36348        4.98684       -3.38003
N          1.83795        3.81021       -5.01120
C          2.36394        4.42500       -6.22039
C          3.82883        4.13358       -6.58072
C          4.18853        2.69576       -7.02644
C          4.44950        1.71094       -5.83552
C          3.74743        0.60240       -6.63883
C          3.06644        1.69602       -7.47960
C          5.43978        2.70508       -7.94870
N          5.17052        3.24850       -9.27695
H          1.02225       -0.47104       -1.08358
H          0.71691       -0.75523        0.63111
H          2.05541        0.29601        0.13957
H         -0.92576        0.86960       -0.33197
H          0.01542        1.52625        1.00154
H         -0.30428        4.09026        0.21230
H          1.37217        5.54234       -3.94308
H          4.00816        4.10336       -3.31172
H          3.80415        5.68750       -4.09553
H          3.38422        5.48146       -2.40163
H          2.21368        2.88088       -4.85665
H          1.73079        4.10673       -7.05651
H          2.22539        5.51274       -6.16876
H          4.05616        4.82748       -7.39897
H          4.50284        4.43151       -5.77166
H          5.49892        1.51009       -5.59456
H          3.94771        1.94659       -4.89406
H          3.07249       -0.03882       -6.06557
H          4.43249       -0.03329       -7.21070
H          2.05373        1.91070       -7.12621
H          3.00358        1.47784       -8.54939
H          6.24150        3.28912       -7.48097
H          5.83684        1.69253       -8.08330
H          4.86686        4.21735       -9.22112
H          4.42341        2.72656       -9.73025

--Link1--
%chk=JID_8212.chk
%mem=8GB
%nprocshared=4
# B3LYP/6-311++G(d,p) empiricaldispersion=gd3bj scf=xqc pop=npa geom=check

CID_104214570_JID_8212_Energie_neutraal

0 1

--Link1--
%chk=JID_8212.chk
%mem=8GB
%nprocshared=4
# B3LYP/6-311++G(d,p) empiricaldispersion=gd3bj scf=xqc pop=npa geom=check

CID_104214570_JID_8212_Energie_kation

1 2

--Link1--
%chk=JID_8212.chk
%mem=8GB
%nprocshared=4
# B3LYP/6-311++G(d,p) empiricaldispersion=gd3bj scf=xqc pop=npa geom=check

CID_104214570_JID_8212_Energie_anion

-1 2
