%chk=JID_8577.chk
%mem=8GB
%nprocshared=4
# opt freq B3LYP/6-31G(d) empiricaldispersion=gd3bj scf=xqc

CID_113925757_JID_8577_neutraal

0 1
C          1.09549        0.01763       -0.02390
C          0.44075       -1.17600        0.67105
C          1.35983       -1.70540        1.83534
C          2.57515       -2.60423        1.42001
C          2.12759       -3.97763        0.87330
C          1.02396       -3.61726       -0.06086
C          0.99480       -4.71977       -1.17779
C          0.09070       -4.62639       -2.92612
C         -0.87540       -3.16306       -3.12133
C         -0.80126       -2.03431       -1.78675
C          0.13944       -2.27279       -0.33300
N          3.24275       -4.78446        0.14250
C          2.98392       -6.11552       -0.68643
C          1.93626       -6.24580       -2.14295
C          2.28337       -4.55745       -2.87689
C          1.02240       -3.20270       -2.20282
S         -1.04049       -4.47646       -1.16258
C          0.03026       -6.52099       -1.71676
H          1.31550        0.81268        0.69648
H          0.43648        0.44199       -0.78896
H          2.03335       -0.26210       -0.51577
H         -0.50914       -0.84905        1.11016
H          0.73610       -2.28502        2.52998
H          1.73707       -0.84910        2.40807
H          3.17523       -2.06523        0.67569
H          3.22170       -2.76200        2.29156
H          1.74025       -4.60186        1.68614
H          1.06587       -5.58645       -0.47934
H          0.02322       -5.39712       -3.69486
H         -1.48273       -2.98427       -3.99957
H         -1.35164       -1.09878       -1.88912
H          3.69728       -4.12963       -0.49414
H          3.97763       -6.39163       -1.06032
H          2.67369       -6.90292        0.01238
H          2.29318       -7.05319       -2.78964
H          2.19058       -4.61356       -3.97178
H          3.29393       -4.22837       -2.61001
H          1.75748       -2.56941       -1.62903
H          0.97546       -2.55797       -3.13445
H         -0.51612       -6.94352       -2.56935
H         -0.07282       -7.15336       -0.82341

--Link1--
%chk=JID_8577.chk
%mem=8GB
%nprocshared=4
# B3LYP/6-311++G(d,p) empiricaldispersion=gd3bj scf=xqc pop=npa geom=check

CID_113925757_JID_8577_Energie_neutraal

0 1

--Link1--
%chk=JID_8577.chk
%mem=8GB
%nprocshared=4
# B3LYP/6-311++G(d,p) empiricaldispersion=gd3bj scf=xqc pop=npa geom=check

CID_113925757_JID_8577_Energie_kation

1 2

--Link1--
%chk=JID_8577.chk
%mem=8GB
%nprocshared=4
# B3LYP/6-311++G(d,p) empiricaldispersion=gd3bj scf=xqc pop=npa geom=check

CID_113925757_JID_8577_Energie_anion

-1 2
