%chk=JID_9184.chk
%mem=8GB
%nprocshared=4
# opt freq B3LYP/6-31G(d) empiricaldispersion=gd3bj scf=xqc

CID_62823200_JID_9184_neutraal

0 1
C          2.49200        0.00400       -0.01400
C          0.99247        0.02134        0.02783
C          0.27564       -1.17204        0.17160
C         -1.12183       -1.16371        0.17914
C         -1.82301        0.03839        0.03096
C         -1.10676        1.23086       -0.12682
C          0.29070        1.22103       -0.13465
C         -3.27319        0.04464        0.05613
C         -4.07591        0.60192       -0.91363
O         -5.37881        0.41027       -0.58320
N         -5.46341       -0.29186        0.60300
C         -4.19650       -0.51626        0.99281
C         -3.89661       -1.21961        2.23674
C         -3.11109       -0.61858        3.21728
C         -2.83293       -1.33268        4.37998
C         -3.34447       -2.61649        4.52879
C         -4.11456       -3.13879        3.50280
N         -4.39563       -2.47539        2.36114
N         -3.82799        1.24425       -2.07096
H          2.89024       -0.77599        0.64345
H          2.83559       -0.18302       -1.03600
H          2.90500        0.95877        0.32811
H          0.80055       -2.11903        0.27890
H         -1.65339       -2.10719        0.29194
H         -1.62941        2.17897       -0.23955
H          0.82730        2.15848       -0.26460
H         -2.72448        0.38707        3.08771
H         -2.22565       -0.88845        5.16354
H         -3.15067       -3.19636        5.42434
H         -4.53946       -4.13616        3.57333
H         -4.59684        1.31892       -2.73104
H         -2.92753        1.10260       -2.51922

--Link1--
%chk=JID_9184.chk
%mem=8GB
%nprocshared=4
# B3LYP/6-311++G(d,p) empiricaldispersion=gd3bj scf=xqc pop=npa geom=check

CID_62823200_JID_9184_Energie_neutraal

0 1

--Link1--
%chk=JID_9184.chk
%mem=8GB
%nprocshared=4
# B3LYP/6-311++G(d,p) empiricaldispersion=gd3bj scf=xqc pop=npa geom=check

CID_62823200_JID_9184_Energie_kation

1 2

--Link1--
%chk=JID_9184.chk
%mem=8GB
%nprocshared=4
# B3LYP/6-311++G(d,p) empiricaldispersion=gd3bj scf=xqc pop=npa geom=check

CID_62823200_JID_9184_Energie_anion

-1 2
