%chk=JID_5239.chk
%mem=8GB
%nprocshared=4
# opt freq B3LYP/6-31G(d) empiricaldispersion=gd3bj scf=xqc

CID_61465447_JID_5239_neutraal

0 1
C         -2.13300       -0.01500        0.07600
N         -0.75160       -0.14709       -0.36764
C         -0.33326       -1.54574       -0.46769
C          1.18380       -1.45061       -0.56141
C          1.55450       -0.13440        0.13082
C          0.20277        0.45157        0.57350
N          2.20540        0.79135       -0.82394
S          3.82161        0.57637       -1.19795
O          4.14965       -0.81509       -0.97810
O          4.02078        1.19957       -2.48672
C          4.66086        1.54754        0.04921
C          4.55651        3.05890       -0.11993
C          3.20656        3.69249        0.23385
C          2.68459        3.41307        1.64500
N          3.59329        3.89498        2.67594
H         -2.81124       -0.48535       -0.64417
H         -2.30384       -0.47141        1.05762
H         -2.41271        1.04234        0.13595
H         -0.61305       -2.11828        0.42629
H         -0.76001       -2.04191       -1.34501
H          1.49776       -1.46569       -1.61199
H          1.65392       -2.30424       -0.06132
H          2.20133       -0.28828        1.00095
H          0.18009        1.54573        0.52874
H         -0.00951        0.13866        1.60416
H          1.64189        1.01193       -1.65065
H          4.33073        1.20084        1.03181
H          5.71620        1.26311       -0.04584
H          5.32977        3.52247        0.50537
H          4.80733        3.33494       -1.15114
H          3.29997        4.77897        0.10307
H          2.45009        3.37632       -0.49216
H          1.72125        3.92055        1.76715
H          2.49929        2.34500        1.79081
H          3.18124        3.74191        3.59578
H          4.46496        3.36930        2.66302

--Link1--
%chk=JID_5239.chk
%mem=8GB
%nprocshared=4
# B3LYP/6-311++G(d,p) empiricaldispersion=gd3bj scf=xqc pop=npa geom=check

CID_61465447_JID_5239_Energie_neutraal

0 1

--Link1--
%chk=JID_5239.chk
%mem=8GB
%nprocshared=4
# B3LYP/6-311++G(d,p) empiricaldispersion=gd3bj scf=xqc pop=npa geom=check

CID_61465447_JID_5239_Energie_kation

1 2

--Link1--
%chk=JID_5239.chk
%mem=8GB
%nprocshared=4
# B3LYP/6-311++G(d,p) empiricaldispersion=gd3bj scf=xqc pop=npa geom=check

CID_61465447_JID_5239_Energie_anion

-1 2
