%chk=JID_9997.chk
%mem=8GB
%nprocshared=4
# opt freq B3LYP/6-31G(d) empiricaldispersion=gd3bj scf=xqc

CID_43238973_JID_9997_neutraal

0 1
C         -1.70100       -1.52800        0.00300
N         -0.40687       -0.87582       -0.05489
C         -0.26723        0.36158       -0.67298
O         -1.17340        0.99501       -1.20699
C          1.09980        0.93137       -0.67810
C          2.12143        0.27442       -0.12717
C          1.80599       -1.02522        0.48943
N          0.62673       -1.56249        0.54543
C          2.97719       -1.76754        1.11170
O          3.58783       -1.19498        2.00866
N          3.29396       -3.04051        0.61320
C          4.14978       -3.86314        1.46078
C          4.86442       -4.96621        0.69151
C          3.87524       -5.78886       -0.13827
C          3.12090       -4.85304       -1.08343
C          2.41206       -3.74305       -0.31917
C          4.51808       -6.89476       -0.94463
O          3.93330       -7.62354       -1.73130
O          5.83435       -7.05627       -0.73432
H         -2.02522       -1.56673        1.04704
H         -2.45012       -0.99081       -0.58426
H         -1.60328       -2.54529       -0.38766
H          1.21515        1.90048       -1.14626
H          3.13319        0.65444       -0.09519
H          3.50991       -4.29730        2.23929
H          4.89126       -3.23562        1.96778
H          5.40130       -5.60990        1.39852
H          5.62030       -4.51698        0.03397
H          3.16949       -6.27773        0.54633
H          3.82551       -4.40964       -1.79997
H          2.38541       -5.40974       -1.67668
H          2.00064       -3.03684       -1.04679
H          1.57950       -4.15586        0.26285
H          6.08027       -7.80104       -1.32310

--Link1--
%chk=JID_9997.chk
%mem=8GB
%nprocshared=4
# B3LYP/6-311++G(d,p) empiricaldispersion=gd3bj scf=xqc pop=npa geom=check

CID_43238973_JID_9997_Energie_neutraal

0 1

--Link1--
%chk=JID_9997.chk
%mem=8GB
%nprocshared=4
# B3LYP/6-311++G(d,p) empiricaldispersion=gd3bj scf=xqc pop=npa geom=check

CID_43238973_JID_9997_Energie_kation

1 2

--Link1--
%chk=JID_9997.chk
%mem=8GB
%nprocshared=4
# B3LYP/6-311++G(d,p) empiricaldispersion=gd3bj scf=xqc pop=npa geom=check

CID_43238973_JID_9997_Energie_anion

-1 2
