%chk=JID_10313.chk
%mem=8GB
%nprocshared=4
# opt freq B3LYP/6-31G(d) empiricaldispersion=gd3bj scf=xqc

CID_81915205_JID_10313_neutraal

0 1
C         -1.50500        0.02200       -0.20100
C         -0.42823        0.43278        0.79567
C          0.81841        0.96362        0.08514
N          1.32536        0.03646       -0.93163
C          0.30021       -0.39983       -1.88354
C         -0.92695       -0.98321       -1.18689
C          2.55895        0.53169       -1.57551
C          2.45884        1.43258       -2.82831
O          2.08606        2.77804       -2.51784
C          0.81315        3.11533       -2.92464
N          0.03248        3.66049       -1.96633
C         -1.24220        3.98211       -2.25306
N         -1.83711        3.85032       -3.45732
C         -1.00113        3.37489       -4.38996
C          0.31693        3.00203       -4.21848
C          0.73374        2.60163       -5.50339
N         -0.24388        2.67902       -6.41478
N         -1.28891        3.15684       -5.70539
N         -1.99619        4.48451       -1.16884
N         -3.38851        4.21144       -1.13200
H         -2.35661       -0.41882        0.32849
H         -1.87565        0.90422       -0.73678
H         -0.82290        1.20048        1.47098
H         -0.15647       -0.43008        1.41700
H          0.58635        1.93649       -0.34521
H          1.59003        1.13132        0.84663
H          0.71715       -1.16669       -2.54719
H         -0.03869        0.42954       -2.51213
H         -0.65462       -1.90741       -0.66195
H         -1.68482       -1.24816       -1.93272
H          3.18948        1.02848       -0.82692
H          3.11765       -0.36348       -1.87868
H          3.46355        1.49931       -3.26393
H          1.84137        0.95951       -3.59822
H          1.70788        2.24772       -5.81575
H         -2.17384        3.31632       -6.17169
H         -1.45654        4.25917       -0.33082
H         -3.87081        4.98325       -0.66575
H         -3.74516        4.21726       -2.09504

--Link1--
%chk=JID_10313.chk
%mem=8GB
%nprocshared=4
# B3LYP/6-311++G(d,p) empiricaldispersion=gd3bj scf=xqc pop=npa geom=check

CID_81915205_JID_10313_Energie_neutraal

0 1

--Link1--
%chk=JID_10313.chk
%mem=8GB
%nprocshared=4
# B3LYP/6-311++G(d,p) empiricaldispersion=gd3bj scf=xqc pop=npa geom=check

CID_81915205_JID_10313_Energie_kation

1 2

--Link1--
%chk=JID_10313.chk
%mem=8GB
%nprocshared=4
# B3LYP/6-311++G(d,p) empiricaldispersion=gd3bj scf=xqc pop=npa geom=check

CID_81915205_JID_10313_Energie_anion

-1 2
