%chk=JID_2250.chk
%mem=8GB
%nprocshared=4
# opt freq B3LYP/6-31G(d) empiricaldispersion=gd3bj scf=xqc

CID_15896745_JID_2250_neutraal

0 1
C          1.07843       -0.04160       -0.04603
C          0.36559       -1.36586       -0.37764
C         -0.97498       -1.45787        0.44410
C         -1.05865       -2.72021        1.33723
C         -0.76816       -3.97776        0.47454
C          0.71125       -3.88034        0.22033
C          1.30705       -2.52665       -0.05287
C          1.30787       -3.08748        1.35643
C          0.17902       -2.67465        2.22691
O          0.29323       -2.30407        3.37927
C         -2.35567       -2.81834        2.11648
C          0.05167       -1.38478       -1.88461
H          1.33751        0.01210        1.01748
H          0.44624        0.82087       -0.28449
H          2.01176        0.05849       -0.61200
H         -1.08475       -0.56669        1.07714
H         -1.83573       -1.44324       -0.23748
H         -0.98384       -4.89911        1.02831
H         -1.34277       -3.98680       -0.45698
H          1.19436       -4.77783       -0.13154
H          2.25300       -2.48224       -0.58045
H          2.22571       -3.42605        1.81296
H         -3.21342       -2.91658        1.44301
H         -2.34996       -3.68414        2.78792
H         -2.51113       -1.92923        2.73742
H         -0.59758       -0.54832       -2.16607
H          0.96876       -1.31386       -2.48078
H         -0.45080       -2.31432       -2.17400

--Link1--
%chk=JID_2250.chk
%mem=8GB
%nprocshared=4
# B3LYP/6-311++G(d,p) empiricaldispersion=gd3bj scf=xqc pop=npa geom=check

CID_15896745_JID_2250_Energie_neutraal

0 1

--Link1--
%chk=JID_2250.chk
%mem=8GB
%nprocshared=4
# B3LYP/6-311++G(d,p) empiricaldispersion=gd3bj scf=xqc pop=npa geom=check

CID_15896745_JID_2250_Energie_kation

1 2

--Link1--
%chk=JID_2250.chk
%mem=8GB
%nprocshared=4
# B3LYP/6-311++G(d,p) empiricaldispersion=gd3bj scf=xqc pop=npa geom=check

CID_15896745_JID_2250_Energie_anion

-1 2
