%chk=JID_10480.chk
%mem=8GB
%nprocshared=4
# opt freq B3LYP/6-31G(d) empiricaldispersion=gd3bj scf=xqc

CID_83214321_JID_10480_neutraal

0 1
C         -2.31600        0.00600       -0.01000
C         -0.85148       -0.24913        0.03964
N         -0.29032       -1.41064       -0.21811
C          1.09198       -1.30778       -0.12674
C          1.54781       -0.05568        0.24800
S          0.23127        1.01981        0.44893
C          1.93073       -2.51515       -0.41864
C          2.78417       -2.32204       -1.62031
N          2.43185       -2.74744       -2.84030
O          3.47423       -2.30214       -3.64943
C          4.36958       -1.66969       -2.82988
N          3.99464       -1.66958       -1.56766
C          5.56928       -1.03462       -3.49136
C          5.11944        0.26661       -4.20705
C          4.73771        1.38769       -3.23861
C          5.87348        1.70511       -2.27511
C          6.33981        0.46826       -1.51396
C          6.70182       -0.68747       -2.46476
N          7.17082       -1.84564       -1.68702
C          6.13328       -2.00691       -4.55521
H         -2.68099        0.37850        0.95239
H         -2.55573        0.73983       -0.78598
H         -2.85735       -0.91726       -0.24030
H          2.56860        0.27099        0.38996
H          2.56725       -2.72723        0.44907
H          1.28527       -3.39145       -0.55372
H          5.93348        0.62934       -4.84922
H          4.26813        0.06841       -4.87136
H          3.83963        1.11091       -2.67374
H          4.48292        2.28844       -3.80895
H          5.55049        2.47395       -1.56402
H          6.71790        2.12613       -2.83484
H          5.56242        0.16641       -0.80291
H          7.21524        0.73957       -0.90982
H          7.57025       -0.34723       -3.04653
H          7.89090       -1.54845       -1.02876
H          6.39728       -2.18529       -1.10814
H          6.38192       -2.98225       -4.12135
H          5.41069       -2.18533       -5.36064
H          7.04057       -1.60323       -5.01892

--Link1--
%chk=JID_10480.chk
%mem=8GB
%nprocshared=4
# B3LYP/6-311++G(d,p) empiricaldispersion=gd3bj scf=xqc pop=npa geom=check

CID_83214321_JID_10480_Energie_neutraal

0 1

--Link1--
%chk=JID_10480.chk
%mem=8GB
%nprocshared=4
# B3LYP/6-311++G(d,p) empiricaldispersion=gd3bj scf=xqc pop=npa geom=check

CID_83214321_JID_10480_Energie_kation

1 2

--Link1--
%chk=JID_10480.chk
%mem=8GB
%nprocshared=4
# B3LYP/6-311++G(d,p) empiricaldispersion=gd3bj scf=xqc pop=npa geom=check

CID_83214321_JID_10480_Energie_anion

-1 2
