%chk=JID_5749.chk
%mem=8GB
%nprocshared=4
# opt freq B3LYP/6-31G(d) empiricaldispersion=gd3bj scf=xqc

CID_116417742_JID_5749_neutraal

0 1
C          1.03005       -0.05163       -0.08019
C          0.20132        1.23125       -0.25390
C         -1.15539        1.14426        0.50670
N         -1.08630        1.40150        1.95812
C         -0.30410        2.59185        2.30553
C          1.08333        2.63454        1.66782
C          0.97040        2.51095        0.14634
N          2.29150        2.59532       -0.48684
C         -0.75268        0.23027        2.77627
C         -1.99363       -0.31828        3.49683
C         -3.01447       -1.02976        2.60464
C         -2.47751       -2.30591        2.01897
C         -2.34649       -3.54054        2.87183
C         -3.39222       -3.48130        1.79377
C         -2.19235        2.10098       -0.10901
H          0.41420       -0.94064       -0.25337
H          1.47846       -0.13263        0.91313
H          1.84584       -0.08673       -0.81045
H         -0.02133        1.29776       -1.32864
H         -1.57206        0.14372        0.33849
H         -0.21483        2.69242        3.39473
H         -0.86315        3.48320        1.99436
H          1.71354        1.83925        2.08392
H          1.56555        3.58434        1.93135
H          0.40342        3.37474       -0.22254
H          2.73003        3.48236       -0.24056
H          2.90344        1.87252       -0.10964
H         -0.27104       -0.56578        2.20347
H         -0.02764        0.49834        3.55598
H         -1.65663       -1.01402        4.27575
H         -2.49719        0.50436        4.02113
H         -3.90171       -1.24871        3.21252
H         -3.35465       -0.37199        1.79836
H         -1.72023       -2.12814        1.26343
H         -1.48389       -4.17749        2.71105
H         -2.68056       -3.50055        3.90268
H         -4.43008       -3.40242        2.09713
H         -3.23720       -4.08198        0.90424
H         -2.35120        1.86226       -1.16640
H         -3.16008        2.00014        0.39581
H         -1.89131        3.15100       -0.04841

--Link1--
%chk=JID_5749.chk
%mem=8GB
%nprocshared=4
# B3LYP/6-311++G(d,p) empiricaldispersion=gd3bj scf=xqc pop=npa geom=check

CID_116417742_JID_5749_Energie_neutraal

0 1

--Link1--
%chk=JID_5749.chk
%mem=8GB
%nprocshared=4
# B3LYP/6-311++G(d,p) empiricaldispersion=gd3bj scf=xqc pop=npa geom=check

CID_116417742_JID_5749_Energie_kation

1 2

--Link1--
%chk=JID_5749.chk
%mem=8GB
%nprocshared=4
# B3LYP/6-311++G(d,p) empiricaldispersion=gd3bj scf=xqc pop=npa geom=check

CID_116417742_JID_5749_Energie_anion

-1 2
