%chk=JID_9941.chk
%mem=8GB
%nprocshared=4
# opt freq B3LYP/6-31G(d) empiricaldispersion=gd3bj scf=xqc

CID_134271477_JID_9941_neutraal

0 1
C          1.00210       -0.00495       -0.09986
C          0.86701       -1.51589       -0.41191
C          1.84183       -2.25551        0.53680
C         -0.56654       -1.94204       -0.02906
C          1.22010       -1.81568       -1.93097
C          1.20848       -3.32647       -2.25990
C          1.41673       -3.62720       -3.74864
N          0.46061       -2.89133       -4.56822
C          0.54151       -1.44867       -4.38187
C          0.28923       -1.07472       -2.91731
C          0.40227       -3.33598       -5.97419
C          1.69047       -3.53376       -6.85274
C          1.28458       -4.01725       -8.26662
C          0.64203       -2.92672       -9.12289
C          1.50827       -1.67218       -9.18980
C          1.91199       -1.17676       -7.80347
C          2.57689       -2.28612       -6.99363
O          2.48356       -4.58336       -6.27213
O          2.56075       -1.32285       -2.13523
H          0.81668        0.19545        0.96228
H          0.27910        0.59162       -0.66507
H          2.00539        0.36941       -0.32886
H          1.65660       -1.98274        1.58269
H          1.72620       -3.34205        0.46915
H          2.88604       -2.00938        0.31728
H         -1.32347       -1.39478       -0.59855
H         -0.73223       -3.01246       -0.18034
H         -0.76245       -1.73822        1.03081
H          2.00601       -3.84215       -1.71278
H          0.25630       -3.77550       -1.95674
H          1.27973       -4.70663       -3.88758
H          2.44914       -3.39080       -4.02903
H         -0.22420       -0.94780       -4.98682
H          1.50671       -1.04472       -4.69708
H         -0.76023       -1.29394       -2.69190
H          0.42601        0.00926       -2.83124
H         -0.09911       -4.31393       -5.93854
H         -0.30630       -2.68472       -6.49861
H          2.17365       -4.39649       -8.78941
H          0.60938       -4.87906       -8.19195
H         -0.34671       -2.66943       -8.72724
H          0.47802       -3.31002      -10.13677
H          0.97075       -0.88042       -9.72371
H          2.41228       -1.88971       -9.77229
H          1.02976       -0.79653       -7.27739
H          2.60502       -0.33401       -7.90670
H          2.89878       -1.91838       -6.01552
H          3.51473       -2.56783       -7.49349
H          3.26051       -4.72658       -6.83883
H          2.84943       -1.55538       -3.03191

--Link1--
%chk=JID_9941.chk
%mem=8GB
%nprocshared=4
# B3LYP/6-311++G(d,p) empiricaldispersion=gd3bj scf=xqc pop=npa geom=check

CID_134271477_JID_9941_Energie_neutraal

0 1

--Link1--
%chk=JID_9941.chk
%mem=8GB
%nprocshared=4
# B3LYP/6-311++G(d,p) empiricaldispersion=gd3bj scf=xqc pop=npa geom=check

CID_134271477_JID_9941_Energie_kation

1 2

--Link1--
%chk=JID_9941.chk
%mem=8GB
%nprocshared=4
# B3LYP/6-311++G(d,p) empiricaldispersion=gd3bj scf=xqc pop=npa geom=check

CID_134271477_JID_9941_Energie_anion

-1 2
