%chk=JID_7275.chk
%mem=8GB
%nprocshared=4
# opt freq B3LYP/6-31G(d) empiricaldispersion=gd3bj scf=xqc

CID_112728235_JID_7275_neutraal

0 1
C          2.49200        0.00400       -0.01400
C          1.00006       -0.12939       -0.10008
C          0.29647       -1.30204       -0.40806
C         -1.11413       -1.27106       -0.40342
C         -1.84778       -0.10969       -0.12254
C         -1.13794        1.05095        0.17455
C          0.25780        1.03815        0.18548
C         -3.36440       -0.09683       -0.11019
C         -3.96665       -0.64899       -1.40522
C         -3.90510       -0.85140        1.10633
O          0.74286       -2.55556       -0.71301
C          2.10670       -2.87052       -0.97094
C          2.58669       -2.57300       -2.36403
C          3.68125       -3.16329       -2.97506
S          3.90269       -2.53093       -4.55308
C          2.53995       -1.52185       -4.31552
N          1.94434       -1.62322       -3.14962
H          2.88599       -0.61870        0.79418
H          2.97098       -0.23752       -0.96419
H          2.79253        1.03232        0.21965
H         -1.64370       -2.19505       -0.63138
H         -1.65939        1.97679        0.40518
H          0.77302        1.96643        0.42785
H         -3.70131        0.94521       -0.02653
H         -3.76065       -1.71698       -1.53348
H         -5.05482       -0.52212       -1.40564
H         -3.56729       -0.12261       -2.27914
H         -3.50701       -0.43094        2.03675
H         -4.99746       -0.78344        1.14920
H         -3.63584       -1.91309        1.07922
H          2.77740       -2.47180       -0.20886
H          2.17067       -3.95927       -0.84242
H          4.34581       -3.91773       -2.57903
H          2.19531       -0.83989       -5.08176

--Link1--
%chk=JID_7275.chk
%mem=8GB
%nprocshared=4
# B3LYP/6-311++G(d,p) empiricaldispersion=gd3bj scf=xqc pop=npa geom=check

CID_112728235_JID_7275_Energie_neutraal

0 1

--Link1--
%chk=JID_7275.chk
%mem=8GB
%nprocshared=4
# B3LYP/6-311++G(d,p) empiricaldispersion=gd3bj scf=xqc pop=npa geom=check

CID_112728235_JID_7275_Energie_kation

1 2

--Link1--
%chk=JID_7275.chk
%mem=8GB
%nprocshared=4
# B3LYP/6-311++G(d,p) empiricaldispersion=gd3bj scf=xqc pop=npa geom=check

CID_112728235_JID_7275_Energie_anion

-1 2
