%chk=JID_5654.chk
%mem=8GB
%nprocshared=4
# opt freq B3LYP/6-31G(d) empiricaldispersion=gd3bj scf=xqc

CID_12260255_JID_5654_neutraal

0 1
C          1.00987       -0.07205        0.06864
C          0.35347       -0.93876       -0.99824
C          1.37962       -1.62743       -1.89556
C          1.46682       -3.12769       -1.67390
O          1.31603       -3.91037       -2.61426
C          1.82880       -3.63684       -0.29142
C          3.22491       -4.27877       -0.24568
C          4.31385       -3.26209       -0.61132
C          3.52886       -4.85235        1.15591
C          2.61746       -5.98029        1.57509
C          1.69972       -5.80410        2.61987
C          0.85390       -6.84658        3.00237
C          0.91923       -8.07475        2.34756
C          1.83057       -8.26207        1.31040
C          2.67640       -7.22076        0.92595
H          1.65898       -0.65420        0.72753
H          0.24406        0.40706        0.68699
H          1.61280        0.71842       -0.39037
H         -0.31552       -1.66494       -0.52279
H         -0.27640       -0.28675       -1.61579
H          1.08220       -1.48044       -2.94157
H          2.38116       -1.19880       -1.78782
H          1.76139       -2.82929        0.44037
H          1.05146       -4.36150       -0.02278
H          3.26751       -5.08762       -0.98648
H          4.27791       -2.38772        0.04765
H          5.30964       -3.71005       -0.52588
H          4.20341       -2.91597       -1.64371
H          4.55961       -5.23015        1.18732
H          3.48771       -4.04550        1.89985
H          1.63416       -4.85261        3.14217
H          0.14333       -6.70046        3.81158
H          0.26033       -8.88603        2.64500
H          1.88261       -9.21937        0.79852
H          3.38186       -7.38331        0.11405

--Link1--
%chk=JID_5654.chk
%mem=8GB
%nprocshared=4
# B3LYP/6-311++G(d,p) empiricaldispersion=gd3bj scf=xqc pop=npa geom=check

CID_12260255_JID_5654_Energie_neutraal

0 1

--Link1--
%chk=JID_5654.chk
%mem=8GB
%nprocshared=4
# B3LYP/6-311++G(d,p) empiricaldispersion=gd3bj scf=xqc pop=npa geom=check

CID_12260255_JID_5654_Energie_kation

1 2

--Link1--
%chk=JID_5654.chk
%mem=8GB
%nprocshared=4
# B3LYP/6-311++G(d,p) empiricaldispersion=gd3bj scf=xqc pop=npa geom=check

CID_12260255_JID_5654_Energie_anion

-1 2
