%chk=JID_10285.chk
%mem=8GB
%nprocshared=4
# opt freq B3LYP/6-31G(d) empiricaldispersion=gd3bj scf=xqc

CID_79617835_JID_10285_neutraal

0 1
C          0.95932       -0.07554        0.05137
C          0.00385       -0.41387        1.18756
N          0.74644       -1.15223        2.19752
C         -0.03035       -1.55013        3.37745
C         -1.18795       -2.50992        3.08700
C         -0.75136       -3.85449        2.50410
C          0.73498       -4.16989        2.67574
C          1.30720       -3.69187        4.02672
C          0.92534       -2.22831        4.37715
N          2.74604       -4.03462        4.09756
C          3.31502       -4.03050        5.44302
C          4.04812       -2.71308        5.59386
C          4.56951       -2.39727        4.18753
C          3.61282       -3.18344        3.26387
C          4.72840       -0.91536        3.87320
C          4.68181       -0.44302        2.54980
C          4.81988        0.91810        2.26163
C          5.03660        1.83136        3.28754
C          5.13052        1.38140        4.60068
C          4.98811        0.02080        4.88797
H          1.78365        0.55754        0.39748
H          0.42796        0.46784       -0.73669
H          1.38504       -0.98174       -0.39336
H         -0.41163        0.50925        1.60602
H         -0.81718       -1.01167        0.78047
H          1.54879       -0.59407        2.49770
H         -0.42764       -0.64366        3.85183
H         -1.71473       -2.70227        4.03205
H         -1.93757       -2.04810        2.43426
H         -0.99485       -3.88622        1.43492
H         -1.34894       -4.64767        2.97047
H          1.28367       -3.72401        1.83773
H          0.87814       -5.25350        2.57169
H          0.80431       -4.32362        4.77392
H          1.80140       -1.58693        4.50278
H          0.45059       -2.23512        5.36854
H          4.03565       -4.85486        5.51101
H          2.57867       -4.18849        6.23816
H          3.35774       -1.94723        5.96332
H          4.86638       -2.78980        6.31837
H          5.56933       -2.84504        4.09351
H          3.03848       -2.53769        2.59764
H          4.20581       -3.83472        2.60957
H          4.53543       -1.12717        1.71689
H          4.76369        1.26165        1.23152
H          5.14603        2.88906        3.06427
H          5.31891        2.08772        5.40476
H          5.08412       -0.29329        5.92484

--Link1--
%chk=JID_10285.chk
%mem=8GB
%nprocshared=4
# B3LYP/6-311++G(d,p) empiricaldispersion=gd3bj scf=xqc pop=npa geom=check

CID_79617835_JID_10285_Energie_neutraal

0 1

--Link1--
%chk=JID_10285.chk
%mem=8GB
%nprocshared=4
# B3LYP/6-311++G(d,p) empiricaldispersion=gd3bj scf=xqc pop=npa geom=check

CID_79617835_JID_10285_Energie_kation

1 2

--Link1--
%chk=JID_10285.chk
%mem=8GB
%nprocshared=4
# B3LYP/6-311++G(d,p) empiricaldispersion=gd3bj scf=xqc pop=npa geom=check

CID_79617835_JID_10285_Energie_anion

-1 2
