%chk=JID_3140.chk
%mem=8GB
%nprocshared=4
# opt freq B3LYP/6-31G(d) empiricaldispersion=gd3bj scf=xqc

CID_62421324_JID_3140_neutraal

0 1
C          0.95346       -0.08613        0.02040
C          0.95334       -1.27809        0.96075
C          1.05709       -0.90051        2.44189
C         -0.01243        0.06331        2.96446
C         -1.47787       -0.36005        2.78098
N         -1.85964       -1.47418        3.65159
C         -3.11695       -1.23953        4.35317
C         -1.78338       -2.81192        3.04810
C         -2.95883       -3.36113        2.19398
C         -3.34557       -2.44954        1.02413
C         -2.61236       -4.75619        1.61172
N         -2.41950       -5.78025        2.64079
C         -2.12889       -7.07511        2.03639
H          0.05565        0.52620        0.14523
H          0.97769       -0.42786       -1.01944
H          1.83066        0.54659        0.18850
H          0.05464       -1.87225        0.77266
H          1.80474       -1.92267        0.71065
H          1.05433       -1.81547        3.04510
H          2.03815       -0.43815        2.61230
H          0.17657        0.24457        4.03092
H          0.12458        1.03679        2.47676
H         -2.07859        0.52537        3.03071
H         -1.68416       -0.55403        1.72646
H         -3.96354       -1.11305        3.67112
H         -3.34227       -2.06520        5.03737
H         -3.04458       -0.33835        4.97280
H         -0.85684       -2.91116        2.47746
H         -1.64538       -3.49623        3.89516
H         -3.84230       -3.47125        2.83645
H         -2.49406       -2.27380        0.35843
H         -4.14459       -2.90280        0.42675
H         -3.72501       -1.48461        1.37041
H         -3.43259       -5.07305        0.95477
H         -1.71040       -4.67511        0.99088
H         -1.64176       -5.52602        3.24932
H         -1.20775       -7.04305        1.44507
H         -1.99731       -7.82340        2.82381
H         -2.95326       -7.40928        1.39807

--Link1--
%chk=JID_3140.chk
%mem=8GB
%nprocshared=4
# B3LYP/6-311++G(d,p) empiricaldispersion=gd3bj scf=xqc pop=npa geom=check

CID_62421324_JID_3140_Energie_neutraal

0 1

--Link1--
%chk=JID_3140.chk
%mem=8GB
%nprocshared=4
# B3LYP/6-311++G(d,p) empiricaldispersion=gd3bj scf=xqc pop=npa geom=check

CID_62421324_JID_3140_Energie_kation

1 2

--Link1--
%chk=JID_3140.chk
%mem=8GB
%nprocshared=4
# B3LYP/6-311++G(d,p) empiricaldispersion=gd3bj scf=xqc pop=npa geom=check

CID_62421324_JID_3140_Energie_anion

-1 2
