%chk=JID_2546.chk
%mem=8GB
%nprocshared=4
# opt freq B3LYP/6-31G(d) empiricaldispersion=gd3bj scf=xqc

CID_43115199_JID_2546_neutraal

0 1
C          0.95503       -0.05458       -0.07070
C          0.09384       -1.23296       -0.45540
C          0.52386       -2.48209        0.29475
N          0.46255       -2.25113        1.73941
C          0.95501       -3.37248        2.55101
C          2.49778       -3.41870        2.53988
C          0.48827       -3.16232        4.02259
C         -0.98624       -2.74651        4.26818
C         -2.01340       -3.75730        3.76147
C         -1.20381       -2.51281        5.76817
C          0.44834       -4.70918        2.03436
N          0.02801       -5.81808        1.60576
H          0.71444        0.33106        0.92478
H          0.78247        0.77002       -0.77132
H          2.02187       -0.29838       -0.10752
H         -0.95992       -1.00389       -0.25787
H          0.18625       -1.41596       -1.53244
H         -0.15118       -3.29067       -0.00503
H          1.53773       -2.75233       -0.02101
H          0.97875       -1.41383        1.99741
H          2.93009       -2.46521        2.86522
H          2.87068       -4.19733        3.21688
H          2.89848       -3.64585        1.54562
H          0.69572       -4.07512        4.59948
H          1.11571       -2.37678        4.46907
H         -1.17548       -1.78949        3.76630
H         -1.81283       -4.76023        4.15228
H         -3.02476       -3.47294        4.07295
H         -2.02379       -3.80143        2.66891
H         -0.51299       -1.75307        6.14883
H         -2.22246       -2.16074        5.96374
H         -1.04732       -3.43340        6.34056

--Link1--
%chk=JID_2546.chk
%mem=8GB
%nprocshared=4
# B3LYP/6-311++G(d,p) empiricaldispersion=gd3bj scf=xqc pop=npa geom=check

CID_43115199_JID_2546_Energie_neutraal

0 1

--Link1--
%chk=JID_2546.chk
%mem=8GB
%nprocshared=4
# B3LYP/6-311++G(d,p) empiricaldispersion=gd3bj scf=xqc pop=npa geom=check

CID_43115199_JID_2546_Energie_kation

1 2

--Link1--
%chk=JID_2546.chk
%mem=8GB
%nprocshared=4
# B3LYP/6-311++G(d,p) empiricaldispersion=gd3bj scf=xqc pop=npa geom=check

CID_43115199_JID_2546_Energie_anion

-1 2
