%chk=JID_2700.chk
%mem=8GB
%nprocshared=4
# opt freq B3LYP/6-31G(d) empiricaldispersion=gd3bj scf=xqc

CID_101066879_JID_2700_neutraal

0 1
C          0.92286        0.03128        0.05542
O          0.51424       -1.19336        0.63432
C          1.26744       -1.71002        1.74000
C          1.34665       -0.76323        2.94754
C          2.52454        0.21849        2.87050
C          3.86260       -0.47009        2.61569
C          3.82302       -1.43001        1.44614
O          4.79691       -1.61945        0.72314
C          2.59891       -2.23905        1.31072
C          2.57187       -3.53291        0.96852
C          1.19665       -4.08419        1.15527
C          0.56412       -3.04254        2.09295
H          0.65490        0.86773        0.70516
H          0.37435        0.15871       -0.88251
H          1.99051        0.03982       -0.17625
H          1.47050       -1.34136        3.87251
H          0.41286       -0.19750        3.04835
H          2.58382        0.77920        3.81121
H          2.35257        0.96409        2.08932
H          4.62438        0.29148        2.41512
H          4.17546       -1.03547        3.50101
H          3.42844       -4.11391        0.65489
H          0.67224       -4.14884        0.19648
H          1.21172       -5.07171        1.62518
H         -0.52200       -3.00320        1.95253
H          0.75876       -3.33781        3.13282

--Link1--
%chk=JID_2700.chk
%mem=8GB
%nprocshared=4
# B3LYP/6-311++G(d,p) empiricaldispersion=gd3bj scf=xqc pop=npa geom=check

CID_101066879_JID_2700_Energie_neutraal

0 1

--Link1--
%chk=JID_2700.chk
%mem=8GB
%nprocshared=4
# B3LYP/6-311++G(d,p) empiricaldispersion=gd3bj scf=xqc pop=npa geom=check

CID_101066879_JID_2700_Energie_kation

1 2

--Link1--
%chk=JID_2700.chk
%mem=8GB
%nprocshared=4
# B3LYP/6-311++G(d,p) empiricaldispersion=gd3bj scf=xqc pop=npa geom=check

CID_101066879_JID_2700_Energie_anion

-1 2
