%chk=JID_2329.chk
%mem=8GB
%nprocshared=4
# opt freq B3LYP/6-31G(d) empiricaldispersion=gd3bj scf=xqc

CID_141267497_JID_2329_neutraal

0 1
C          0.94983       -0.08093       -0.03055
C          0.34230       -1.07916        0.94923
C          0.82298       -0.93616        2.41750
C          0.36158        0.43010        2.99501
C          0.37804        0.27503        4.51147
C         -0.06440       -1.16655        4.65735
O         -0.57639       -1.62600        5.67475
C          0.12526       -1.95574        3.36930
O         -1.14780       -2.37041        2.90133
O         -0.47296        1.21450        5.12665
C          2.37326       -1.05169        2.54829
C          2.98943       -2.30077        1.92508
H          0.73254        0.95055        0.26158
H          0.52707       -0.23794       -1.02851
H          2.03372       -0.19713       -0.11260
H         -0.74710       -0.95334        0.90246
H          0.54163       -2.09587        0.58980
H          1.00192        1.26233        2.68155
H         -0.65487        0.67562        2.65795
H          1.38769        0.37895        4.91995
H          0.73717       -2.83907        3.56744
H         -1.57256       -2.85397        3.63608
H         -0.69138        0.85480        6.00796
H          2.84965       -0.17291        2.09626
H          2.66360       -1.03517        3.60587
H          2.86294       -2.31688        0.83915
H          4.06574       -2.32113        2.12678
H          2.55885       -3.21756        2.33611

--Link1--
%chk=JID_2329.chk
%mem=8GB
%nprocshared=4
# B3LYP/6-311++G(d,p) empiricaldispersion=gd3bj scf=xqc pop=npa geom=check

CID_141267497_JID_2329_Energie_neutraal

0 1

--Link1--
%chk=JID_2329.chk
%mem=8GB
%nprocshared=4
# B3LYP/6-311++G(d,p) empiricaldispersion=gd3bj scf=xqc pop=npa geom=check

CID_141267497_JID_2329_Energie_kation

1 2

--Link1--
%chk=JID_2329.chk
%mem=8GB
%nprocshared=4
# B3LYP/6-311++G(d,p) empiricaldispersion=gd3bj scf=xqc pop=npa geom=check

CID_141267497_JID_2329_Energie_anion

-1 2
