%chk=JID_10826.chk
%mem=8GB
%nprocshared=4
# opt freq B3LYP/6-31G(d) empiricaldispersion=gd3bj scf=xqc

CID_66751774_JID_10826_neutraal

0 1
C          1.10276       -1.65691        2.09406
C          0.44268       -1.41067        0.72993
C         -1.05452       -1.07664        0.91766
C         -1.77523       -0.94218       -0.42397
C         -1.49944       -2.10743       -1.34541
O         -2.35290       -2.54603       -2.11166
N         -0.24992       -2.65742       -1.28997
C          0.42859       -2.72350       -0.09954
O          0.83870       -3.80468        0.31757
N          1.15318       -0.33038        0.00519
C          0.90547        1.10829        0.29700
C          2.08701        1.75002       -0.31615
C          2.52302        3.03258       -0.53137
S          4.06222        2.97266       -1.33333
C          4.10565        1.25300       -1.35292
C          2.96930        0.75931       -0.78387
C          2.44039       -0.54873       -0.52776
O          3.00241       -1.60985       -0.72733
N          1.86492        4.17007       -0.19010
C          2.48627        5.47719       -0.26411
H          1.08220       -0.75497        2.71520
H          2.15093       -1.95690        1.98367
H          0.59339       -2.45458        2.64677
H         -1.53760       -1.88194        1.48874
H         -1.19098       -0.15830        1.50047
H         -1.49092       -0.02825       -0.95272
H         -2.85501       -0.89301       -0.24274
H         -0.20200       -3.52127       -1.81544
H         -0.03000        1.42825       -0.16412
H          0.88750        1.26303        1.37947
H          4.93999        0.71446       -1.78111
H          1.06545        4.12292        0.43348
H          1.75983        6.24073        0.03213
H          3.34058        5.54731        0.41687
H          2.80849        5.71255       -1.28360

--Link1--
%chk=JID_10826.chk
%mem=8GB
%nprocshared=4
# B3LYP/6-311++G(d,p) empiricaldispersion=gd3bj scf=xqc pop=npa geom=check

CID_66751774_JID_10826_Energie_neutraal

0 1

--Link1--
%chk=JID_10826.chk
%mem=8GB
%nprocshared=4
# B3LYP/6-311++G(d,p) empiricaldispersion=gd3bj scf=xqc pop=npa geom=check

CID_66751774_JID_10826_Energie_kation

1 2

--Link1--
%chk=JID_10826.chk
%mem=8GB
%nprocshared=4
# B3LYP/6-311++G(d,p) empiricaldispersion=gd3bj scf=xqc pop=npa geom=check

CID_66751774_JID_10826_Energie_anion

-1 2
