%chk=JID_4038.chk
%mem=8GB
%nprocshared=4
# opt freq B3LYP/6-31G(d) empiricaldispersion=gd3bj scf=xqc

CID_150247330_JID_4038_neutraal

0 1
C          0.99214        0.09326       -0.03523
C         -0.27587        0.47200        0.71421
C         -0.59947        1.96969        0.68265
C         -0.68732        2.62550       -0.69635
O         -1.94900        2.46465       -1.34631
C         -2.18381        1.15882       -1.87455
C         -3.14721        1.22624       -3.09086
C         -3.31868       -0.19185       -3.69193
C         -4.12982       -1.13680       -2.80602
C         -5.48547       -0.54034       -2.44700
C         -5.34717        0.83662       -1.80811
C         -4.53222        1.79007       -2.68244
C         -2.51807        2.14168       -4.17408
O         -2.45650        3.50671       -3.77688
H          0.87976        0.22013       -1.11514
H          1.23308       -0.95924        0.14665
H          1.84190        0.69642        0.29958
H         -1.11273       -0.11811        0.33229
H         -0.15678        0.17587        1.76413
H         -1.54073        2.13049        1.22178
H          0.18669        2.48531        1.24919
H         -0.57864        3.70672       -0.55087
H          0.12636        2.33159       -1.36673
H         -1.23806        0.70390       -2.19159
H         -2.60933        0.54656       -1.07649
H         -3.82607       -0.11674       -4.66307
H         -2.33757       -0.64031       -3.89297
H         -3.57321       -1.36979       -1.89117
H         -4.27799       -2.08814       -3.33012
H         -6.01589       -1.21300       -1.76366
H         -6.09838       -0.46039       -3.35348
H         -4.88184        0.74119       -0.82051
H         -6.34427        1.26099       -1.64205
H         -4.42831        2.74717       -2.15772
H         -5.11397        2.00078       -3.59017
H         -1.49978        1.81491       -4.41373
H         -3.09921        2.10347       -5.10158
H         -2.23929        3.51178       -2.82216

--Link1--
%chk=JID_4038.chk
%mem=8GB
%nprocshared=4
# B3LYP/6-311++G(d,p) empiricaldispersion=gd3bj scf=xqc pop=npa geom=check

CID_150247330_JID_4038_Energie_neutraal

0 1

--Link1--
%chk=JID_4038.chk
%mem=8GB
%nprocshared=4
# B3LYP/6-311++G(d,p) empiricaldispersion=gd3bj scf=xqc pop=npa geom=check

CID_150247330_JID_4038_Energie_kation

1 2

--Link1--
%chk=JID_4038.chk
%mem=8GB
%nprocshared=4
# B3LYP/6-311++G(d,p) empiricaldispersion=gd3bj scf=xqc pop=npa geom=check

CID_150247330_JID_4038_Energie_anion

-1 2
