%chk=JID_6129.chk
%mem=8GB
%nprocshared=4
# opt freq B3LYP/6-31G(d) empiricaldispersion=gd3bj scf=xqc

CID_11148848_JID_6129_neutraal

0 1
C         -2.51000       -0.01300       -0.02600
C         -1.91536        1.18460       -0.00245
C         -0.50992        1.50598        0.05917
C          0.53145        0.66553        0.07744
C          1.90658        1.11475        0.12684
C          2.66921        0.01260        0.12482
C          1.82028       -1.18541        0.07605
C          0.51695       -0.79924        0.04512
C         -0.62916       -1.68002        0.03348
C         -1.92221       -1.32944        0.00508
C          2.36557       -2.50780        0.07078
C          3.45794       -2.91326        0.81067
S          3.79086       -4.56360        0.48884
C          2.46584       -4.60693       -0.60202
N          1.81206       -3.48136       -0.74040
N          2.14916       -5.72459       -1.27535
H         -3.59906       -0.02357       -0.07498
H         -2.56390        2.06010       -0.03440
H         -0.30914        2.57625        0.08590
H          2.24420        2.13785        0.14695
H          3.74797       -0.00609        0.13655
H         -0.41425       -2.74676        0.05316
H         -2.65158       -2.13942        0.00010
H          4.05539       -2.34634        1.50945
H          2.87457       -6.41833       -1.40503
H          1.55608       -5.58539       -2.08579

--Link1--
%chk=JID_6129.chk
%mem=8GB
%nprocshared=4
# B3LYP/6-311++G(d,p) empiricaldispersion=gd3bj scf=xqc pop=npa geom=check

CID_11148848_JID_6129_Energie_neutraal

0 1

--Link1--
%chk=JID_6129.chk
%mem=8GB
%nprocshared=4
# B3LYP/6-311++G(d,p) empiricaldispersion=gd3bj scf=xqc pop=npa geom=check

CID_11148848_JID_6129_Energie_kation

1 2

--Link1--
%chk=JID_6129.chk
%mem=8GB
%nprocshared=4
# B3LYP/6-311++G(d,p) empiricaldispersion=gd3bj scf=xqc pop=npa geom=check

CID_11148848_JID_6129_Energie_anion

-1 2
