%chk=JID_437.chk
%mem=8GB
%nprocshared=4
# opt freq B3LYP/6-31G(d) empiricaldispersion=gd3bj scf=xqc

CID_89209419_JID_437_neutraal

0 1
C          1.06939       -0.02432       -0.06777
C          0.57560       -1.18308        0.78457
C          0.81793       -0.98917        2.28344
C          0.17173        0.25354        2.90889
C         -1.34476        0.35420        2.73896
N         -2.02619       -0.75865        3.37586
C         -2.44530       -0.86700        4.69508
C         -2.86801       -2.05939        5.16023
C         -3.39167       -2.40899        6.51674
C         -2.41557        0.38483        5.54067
H          0.49827        0.88832        0.12593
H          0.95802       -0.26537       -1.12984
H          2.12729        0.18119        0.12367
H         -0.48846       -1.35451        0.58895
H          1.09684       -2.09469        0.46772
H          0.46793       -1.88469        2.81124
H          1.89966       -0.93794        2.46153
H          0.41984        0.26211        3.97757
H          0.63251        1.15333        2.48455
H         -1.69665        1.30999        3.14253
H         -1.60989        0.36593        1.67667
H         -1.96662       -1.63911        2.87106
H         -2.85265       -2.90859        4.47901
H         -4.34983       -2.92883        6.41228
H         -2.69361       -3.08537        7.01949
H         -3.56183       -1.54899        7.16565
H         -1.40386        0.80261        5.57044
H         -3.09157        1.13788        5.12163
H         -2.71359        0.22498        6.57821

--Link1--
%chk=JID_437.chk
%mem=8GB
%nprocshared=4
# B3LYP/6-311++G(d,p) empiricaldispersion=gd3bj scf=xqc pop=npa geom=check

CID_89209419_JID_437_Energie_neutraal

0 1

--Link1--
%chk=JID_437.chk
%mem=8GB
%nprocshared=4
# B3LYP/6-311++G(d,p) empiricaldispersion=gd3bj scf=xqc pop=npa geom=check

CID_89209419_JID_437_Energie_kation

1 2

--Link1--
%chk=JID_437.chk
%mem=8GB
%nprocshared=4
# B3LYP/6-311++G(d,p) empiricaldispersion=gd3bj scf=xqc pop=npa geom=check

CID_89209419_JID_437_Energie_anion

-1 2
