%chk=JID_7244.chk
%mem=8GB
%nprocshared=4
# opt freq B3LYP/6-31G(d) empiricaldispersion=gd3bj scf=xqc

CID_151893658_JID_7244_neutraal

0 1
C          1.01500       -0.09726        0.01775
C         -0.09957       -1.04685       -0.45097
C         -1.13999       -1.14368        0.67957
C         -0.77941       -0.50541       -1.73302
C          0.14925       -0.12217       -2.89103
O          1.02799       -1.19814       -3.21658
C          1.91870       -0.89437       -4.22806
C          3.00726       -1.73490       -4.45409
C          3.84535       -1.42592       -5.53601
C          3.58411       -0.31414       -6.33103
C          2.48392        0.46146       -6.02021
N          1.64798        0.19699       -4.99374
C          3.36433       -2.92173       -3.63583
O          4.20216       -3.72853       -4.02809
N          2.77464       -3.09066       -2.41999
O          0.55110       -2.31197       -0.66529
C         -0.28554       -3.43395       -0.92203
H          0.64721        0.92549        0.15049
H          1.85289       -0.08135       -0.68779
H          1.43598       -0.43729        0.97160
H         -1.49931       -0.15269        0.97807
H         -2.01375       -1.72827        0.37163
H         -0.71685       -1.63949        1.56047
H         -1.48634       -1.25317       -2.10961
H         -1.37633        0.38129       -1.48214
H         -0.48390        0.12244       -3.75383
H          0.72698        0.76912       -2.61551
H          4.70836       -2.05165       -5.75648
H          4.22540       -0.06289       -7.16862
H          2.23455        1.34086       -6.60754
H          2.03563       -2.48932       -2.05787
H          3.02073       -3.90263       -1.87236
H          0.36003       -4.29981       -1.09554
H         -0.91624       -3.66404       -0.05989
H         -0.89347       -3.28754       -1.81704

--Link1--
%chk=JID_7244.chk
%mem=8GB
%nprocshared=4
# B3LYP/6-311++G(d,p) empiricaldispersion=gd3bj scf=xqc pop=npa geom=check

CID_151893658_JID_7244_Energie_neutraal

0 1

--Link1--
%chk=JID_7244.chk
%mem=8GB
%nprocshared=4
# B3LYP/6-311++G(d,p) empiricaldispersion=gd3bj scf=xqc pop=npa geom=check

CID_151893658_JID_7244_Energie_kation

1 2

--Link1--
%chk=JID_7244.chk
%mem=8GB
%nprocshared=4
# B3LYP/6-311++G(d,p) empiricaldispersion=gd3bj scf=xqc pop=npa geom=check

CID_151893658_JID_7244_Energie_anion

-1 2
