%chk=JID_9472.chk
%mem=8GB
%nprocshared=4
# opt freq B3LYP/6-31G(d) empiricaldispersion=gd3bj scf=xqc

CID_105347964_JID_9472_neutraal

0 1
C          1.08522        0.03277       -0.04079
C          0.54233       -1.01372        0.91960
C          1.01566       -0.88966        2.37976
C          0.99113        0.56927        2.86515
C          0.19937       -1.74785        3.39099
N          0.25849       -3.20385        3.23996
C          0.25819       -3.92930        4.51916
C         -0.84029       -3.58392        5.52337
C         -0.57997       -3.83150        2.21138
C         -2.08233       -3.84650        2.39507
C         -2.85887       -2.70741        2.14933
C         -4.25153       -2.75091        2.24327
C         -4.90978       -3.94449        2.56185
C         -4.13624       -5.08506        2.81706
C         -2.74111       -5.03620        2.73478
C         -6.42893       -4.02936        2.61472
C         -6.96494       -3.21191        3.79501
C         -7.10876       -3.57901        1.29862
N         -6.73957       -4.41681        0.15557
H          0.68105        1.02630        0.17535
H          0.80075       -0.21808       -1.06810
H          2.17780        0.07972        0.00454
H         -0.54977       -0.97746        0.87223
H          0.86411       -1.98423        0.52985
H          2.06132       -1.22424        2.42268
H         -0.01176        0.99928        2.77187
H          1.29313        0.63961        3.91593
H          1.68954        1.19171        2.29701
H          0.63681       -1.50209        4.36930
H         -0.83296       -1.38910        3.45029
H          0.25184       -5.01188        4.33953
H          1.22316       -3.73590        5.00628
H         -1.83986       -3.78758        5.13648
H         -0.71137       -4.18883        6.42756
H         -0.80045       -2.53443        5.83003
H         -0.38271       -3.40858        1.22555
H         -0.23615       -4.86900        2.09159
H         -2.39045       -1.77182        1.86241
H         -4.81433       -1.84158        2.04629
H         -4.61595       -6.02918        3.06597
H         -2.17090       -5.94370        2.92262
H         -6.71553       -5.07536        2.79135
H         -6.75788       -2.14242        3.67814
H         -8.04953       -3.33376        3.88729
H         -6.51033       -3.53901        4.73686
H         -8.19737       -3.62807        1.41499
H         -6.86060       -2.53650        1.06835
H         -7.09112       -3.99281       -0.70154
H         -5.72165       -4.43072        0.06773

--Link1--
%chk=JID_9472.chk
%mem=8GB
%nprocshared=4
# B3LYP/6-311++G(d,p) empiricaldispersion=gd3bj scf=xqc pop=npa geom=check

CID_105347964_JID_9472_Energie_neutraal

0 1

--Link1--
%chk=JID_9472.chk
%mem=8GB
%nprocshared=4
# B3LYP/6-311++G(d,p) empiricaldispersion=gd3bj scf=xqc pop=npa geom=check

CID_105347964_JID_9472_Energie_kation

1 2

--Link1--
%chk=JID_9472.chk
%mem=8GB
%nprocshared=4
# B3LYP/6-311++G(d,p) empiricaldispersion=gd3bj scf=xqc pop=npa geom=check

CID_105347964_JID_9472_Energie_anion

-1 2
