%chk=JID_5462.chk
%mem=8GB
%nprocshared=4
# opt freq B3LYP/6-31G(d) empiricaldispersion=gd3bj scf=xqc

CID_81546158_JID_5462_neutraal

0 1
C          2.44200       -0.09800       -0.00700
C          0.96728        0.16833       -0.00704
N          0.56736        1.45790       -0.00631
C         -0.77096        1.69083       -0.00913
C         -1.76423        0.71240        0.02061
C         -1.30288       -0.60530       -0.01493
C          0.06468       -0.88703       -0.01790
N         -3.13203        0.95113       -0.02975
C         -3.72054        2.25586        0.27096
C         -5.02068        2.04879        1.06196
C         -5.67818        3.36827        1.43443
S         -6.21430        4.29946       -0.02852
O         -7.07819        3.39778       -0.85845
C         -4.57553        4.38415       -0.80612
C         -3.97686        3.00667       -1.04105
H          3.00759        0.83943       -0.00750
H          2.72353       -0.66541        0.88557
H          2.72409       -0.66640       -0.89878
H         -1.01781        2.74630       -0.04596
H         -2.00722       -1.43241       -0.04129
H          0.41020       -1.91532       -0.03527
H         -3.70779        0.14730        0.20682
H         -3.04713        2.84398        0.90738
H         -5.71764        1.42340        0.48861
H         -4.79787        1.49440        1.98268
H         -5.00043        4.00177        2.01586
H         -6.56956        3.18404        2.04236
H         -3.92662        4.99613       -0.17107
H         -4.69997        4.90630       -1.76005
H         -3.03375        3.12544       -1.58851
H         -4.63249        2.41270       -1.69148

--Link1--
%chk=JID_5462.chk
%mem=8GB
%nprocshared=4
# B3LYP/6-311++G(d,p) empiricaldispersion=gd3bj scf=xqc pop=npa geom=check

CID_81546158_JID_5462_Energie_neutraal

0 1

--Link1--
%chk=JID_5462.chk
%mem=8GB
%nprocshared=4
# B3LYP/6-311++G(d,p) empiricaldispersion=gd3bj scf=xqc pop=npa geom=check

CID_81546158_JID_5462_Energie_kation

1 2

--Link1--
%chk=JID_5462.chk
%mem=8GB
%nprocshared=4
# B3LYP/6-311++G(d,p) empiricaldispersion=gd3bj scf=xqc pop=npa geom=check

CID_81546158_JID_5462_Energie_anion

-1 2
