%chk=JID_10601.chk
%mem=8GB
%nprocshared=4
# opt freq B3LYP/6-31G(d) empiricaldispersion=gd3bj scf=xqc

CID_105940807_JID_10601_neutraal

0 1
C          0.96022        0.04046       -0.08234
C          0.58152        0.50328        1.34058
C          1.23874        1.87743        1.59660
C         -0.95489        0.66940        1.38456
N         -1.59579        1.82163        1.45549
C         -2.95893        1.60604        1.50201
C         -3.35543        0.28896        1.45913
S         -1.98160       -0.72459        1.35835
N          1.06860       -0.40042        2.42260
C          1.93894       -1.47213        2.29490
C          3.19529       -1.29937        1.69829
C          4.08688       -2.36449        1.53144
C          3.74568       -3.64113        1.97125
C          2.50681       -3.86322        2.57982
C          1.62106       -2.78221        2.72315
N          0.31807       -3.03086        3.31090
O          0.01664       -2.37458        4.31748
O         -0.40764       -3.85803        2.74513
C          2.21101       -5.18058        3.06489
N          2.01000       -6.24873        3.46817
H          0.45806        0.65388       -0.84125
H          0.66970       -1.00076       -0.26401
H          2.03277        0.12682       -0.27894
H          0.93648        2.61575        0.84442
H          0.96102        2.27294        2.58140
H          2.33201        1.80930        1.57244
H         -3.62784        2.45553        1.56902
H         -4.35724       -0.11504        1.48374
H          0.38095       -0.48600        3.17664
H          3.51657       -0.30925        1.38074
H          5.05658       -2.18916        1.06888
H          4.45729       -4.45673        1.84563

--Link1--
%chk=JID_10601.chk
%mem=8GB
%nprocshared=4
# B3LYP/6-311++G(d,p) empiricaldispersion=gd3bj scf=xqc pop=npa geom=check

CID_105940807_JID_10601_Energie_neutraal

0 1

--Link1--
%chk=JID_10601.chk
%mem=8GB
%nprocshared=4
# B3LYP/6-311++G(d,p) empiricaldispersion=gd3bj scf=xqc pop=npa geom=check

CID_105940807_JID_10601_Energie_kation

1 2

--Link1--
%chk=JID_10601.chk
%mem=8GB
%nprocshared=4
# B3LYP/6-311++G(d,p) empiricaldispersion=gd3bj scf=xqc pop=npa geom=check

CID_105940807_JID_10601_Energie_anion

-1 2
