%chk=JID_6718.chk
%mem=8GB
%nprocshared=4
# opt freq B3LYP/6-31G(d) empiricaldispersion=gd3bj scf=xqc

CID_107268294_JID_6718_neutraal

0 1
C          0.94417       -0.08273        0.00620
C          0.35207        0.81072       -1.07293
C         -1.18429        0.95490       -1.06407
C         -1.35780        2.40381       -1.48090
C         -0.18204        3.06431       -0.79720
O          0.90525        2.13682       -0.89057
C         -1.93411       -0.01617       -2.00137
N         -1.91608       -1.39097       -1.46797
C         -2.86640       -2.26319       -2.15933
C         -2.30648       -2.79919       -3.42225
C         -2.22793       -2.28535       -4.69833
N         -1.64574       -3.18189       -5.55442
C         -1.38125       -4.24853       -4.83081
N         -1.76123       -4.05606       -3.52661
C         -0.77980       -5.51709       -5.30347
O         -1.73031        0.81031        0.25766
H          0.57396       -1.10825       -0.06215
H          0.72946        0.30619        1.00746
H          2.03600       -0.10577       -0.08358
H          0.69910        0.47622       -2.05774
H         -2.30692        2.84846       -1.16715
H         -1.25560        2.50878       -2.56762
H         -0.38258        3.24993        0.26376
H          0.10039        4.00966       -1.26857
H         -2.97672        0.32135       -2.06392
H         -1.50660        0.02038       -3.00928
H         -0.98045       -1.78354       -1.57485
H         -3.09691       -3.09805       -1.48620
H         -3.82249       -1.75792       -2.34084
H         -2.56305       -1.31747       -5.04835
H         -1.67147       -4.73460       -2.78218
H          0.00799       -5.85450       -4.62295
H         -1.54327       -6.29862       -5.36765
H         -0.33913       -5.38760       -6.29670
H         -1.92990       -0.14450        0.34407

--Link1--
%chk=JID_6718.chk
%mem=8GB
%nprocshared=4
# B3LYP/6-311++G(d,p) empiricaldispersion=gd3bj scf=xqc pop=npa geom=check

CID_107268294_JID_6718_Energie_neutraal

0 1

--Link1--
%chk=JID_6718.chk
%mem=8GB
%nprocshared=4
# B3LYP/6-311++G(d,p) empiricaldispersion=gd3bj scf=xqc pop=npa geom=check

CID_107268294_JID_6718_Energie_kation

1 2

--Link1--
%chk=JID_6718.chk
%mem=8GB
%nprocshared=4
# B3LYP/6-311++G(d,p) empiricaldispersion=gd3bj scf=xqc pop=npa geom=check

CID_107268294_JID_6718_Energie_anion

-1 2
