%chk=JID_6599.chk
%mem=8GB
%nprocshared=4
# opt freq B3LYP/6-31G(d) empiricaldispersion=gd3bj scf=xqc

CID_83227406_JID_6599_neutraal

0 1
C          1.09056       -0.00870       -0.04151
C          0.73018       -1.06893        0.98984
C          0.79840       -0.54052        2.42858
C         -0.22233        0.56363        2.69071
C         -0.32154        0.58916        4.20382
C         -0.05360       -0.85555        4.63528
N          0.40940       -1.54547        3.42447
C          1.33918       -2.65758        3.64567
C          2.74628       -2.30381        4.08328
C          3.07144       -2.19769        5.44638
C          4.35815       -1.84135        5.86356
C          5.36029       -1.70586        4.90190
C          5.06256       -1.81877        3.54349
C          3.76098       -2.10809        3.13652
N          4.68551       -1.85214        7.22580
C         -1.32204       -1.52538        5.15815
H          0.36900        0.81366       -0.04090
H          1.09408       -0.44666       -1.04484
H          2.08620        0.40320        0.15147
H         -0.27458       -1.45172        0.77112
H          1.41989       -1.91063        0.86375
H          1.79795       -0.13960        2.63796
H          0.09354        1.53352        2.29396
H         -1.19955        0.31699        2.25654
H         -1.28553        0.98365        4.53994
H          0.46621        1.24086        4.60261
H          0.69345       -0.83625        5.43418
H          0.90836       -3.35118        4.38003
H          1.40072       -3.26077        2.73076
H          2.30658       -2.39708        6.19278
H          6.38599       -1.51193        5.20334
H          5.84904       -1.69630        2.80391
H          3.54663       -2.20109        2.07472
H          5.50562       -1.29692        7.44896
H          3.90092       -1.63741        7.83275
H         -1.12978       -2.56014        5.46033
H         -1.70616       -0.98982        6.03300
H         -2.11350       -1.53592        4.39980

--Link1--
%chk=JID_6599.chk
%mem=8GB
%nprocshared=4
# B3LYP/6-311++G(d,p) empiricaldispersion=gd3bj scf=xqc pop=npa geom=check

CID_83227406_JID_6599_Energie_neutraal

0 1

--Link1--
%chk=JID_6599.chk
%mem=8GB
%nprocshared=4
# B3LYP/6-311++G(d,p) empiricaldispersion=gd3bj scf=xqc pop=npa geom=check

CID_83227406_JID_6599_Energie_kation

1 2

--Link1--
%chk=JID_6599.chk
%mem=8GB
%nprocshared=4
# B3LYP/6-311++G(d,p) empiricaldispersion=gd3bj scf=xqc pop=npa geom=check

CID_83227406_JID_6599_Energie_anion

-1 2
