%chk=JID_6522.chk
%mem=8GB
%nprocshared=4
# opt freq B3LYP/6-31G(d) empiricaldispersion=gd3bj scf=xqc

CID_71124130_JID_6522_neutraal

0 1
C          1.06868       -0.07236        0.00677
C          0.60649        0.39463        1.38418
C          0.06039        1.82530        1.35251
C          1.21719        2.72180        1.78343
C          2.08046        1.79424        2.59462
C          1.74632        0.50994        2.36703
C          2.34699       -0.73286        2.93384
C          3.17773        2.33504        3.48327
C          4.24269        3.04384        2.63751
C          2.66267        3.28975        4.58236
C          1.62526        2.69404        5.54181
C          2.05583        1.46202        6.35309
C          3.24086        1.63304        7.32766
C          3.05365        2.81714        8.27822
C          3.42218        0.34111        8.13449
O          4.43958        1.83543        6.57877
H          0.23235       -0.06793       -0.70041
H          1.46134       -1.09373        0.04944
H          1.85561        0.57296       -0.39960
H         -0.16799       -0.28400        1.75996
H         -0.34349        2.11687        0.37725
H         -0.75806        1.91840        2.07947
H          1.77069        3.09784        0.91636
H          0.84131        3.57132        2.35972
H          3.16623       -0.53320        3.62786
H          1.58635       -1.30322        3.47653
H          2.74578       -1.36460        2.13425
H          3.68936        1.50421        3.97835
H          3.84609        3.94395        2.15496
H          5.08989        3.34772        3.26222
H          4.62896        2.38129        1.85487
H          3.51252        3.67174        5.15981
H          2.21739        4.17838        4.11591
H          1.29986        3.48243        6.23114
H          0.72738        2.42491        4.97133
H          1.17768        1.13482        6.92615
H          2.28263        0.64864        5.65454
H          2.11208        2.74349        8.83180
H          3.87451        2.86749        9.00322
H          3.07337        3.77001        7.73907
H          3.61145       -0.50937        7.46940
H          4.29099        0.41155        8.79911
H          2.53984        0.11748        8.74299
H          5.17513        1.93368        7.20726

--Link1--
%chk=JID_6522.chk
%mem=8GB
%nprocshared=4
# B3LYP/6-311++G(d,p) empiricaldispersion=gd3bj scf=xqc pop=npa geom=check

CID_71124130_JID_6522_Energie_neutraal

0 1

--Link1--
%chk=JID_6522.chk
%mem=8GB
%nprocshared=4
# B3LYP/6-311++G(d,p) empiricaldispersion=gd3bj scf=xqc pop=npa geom=check

CID_71124130_JID_6522_Energie_kation

1 2

--Link1--
%chk=JID_6522.chk
%mem=8GB
%nprocshared=4
# B3LYP/6-311++G(d,p) empiricaldispersion=gd3bj scf=xqc pop=npa geom=check

CID_71124130_JID_6522_Energie_anion

-1 2
