%chk=JID_10936.chk
%mem=8GB
%nprocshared=4
# opt freq B3LYP/6-31G(d) empiricaldispersion=gd3bj scf=xqc

CID_142267366_JID_10936_neutraal

0 1
C          0.94228        0.08148       -0.00545
C          0.02401        0.60609       -1.09799
C          0.63241        0.51322       -2.49825
C          0.97296       -0.90210       -2.97626
C         -0.20327       -1.88308       -3.04886
C         -1.39265       -1.43929       -3.90913
C         -0.99784       -1.07534       -5.34200
C         -2.18293       -0.77156       -6.26518
C         -3.12714        0.31171       -5.72341
C         -3.72240        1.17415       -6.82005
C         -3.49574        2.56761       -6.90467
C         -4.06715        3.28864       -7.96991
C         -4.85412        2.64748       -8.92893
C         -5.09547        1.27924       -8.83955
C         -4.53490        0.55158       -7.78887
C         -5.43575        3.41638      -10.04733
O         -5.25541        4.62089      -10.17787
C         -2.65811        3.33544       -5.90180
C         -1.14739        3.17611       -6.09939
C         -0.62375        3.92499       -7.31644
H          1.09300       -0.99843       -0.09376
H          0.50294        0.27435        0.97858
H          1.91968        0.57278       -0.04188
H         -0.93329        0.07536       -1.05962
H         -0.19682        1.65993       -0.88884
H         -0.05337        0.98832       -3.20928
H          1.55144        1.11273       -2.52294
H          1.44129       -0.82836       -3.96535
H          1.74297       -1.33201       -2.32455
H          0.17383       -2.83673       -3.43961
H         -0.56478       -2.09556       -2.03571
H         -2.12557       -2.25510       -3.93221
H         -1.88837       -0.59232       -3.42292
H         -0.33978       -0.19935       -5.33476
H         -0.41994       -1.89773       -5.78110
H         -1.76997       -0.47124       -7.23696
H         -2.75258       -1.69241       -6.44273
H         -3.94832       -0.15896       -5.16710
H         -2.59785        0.92877       -4.99478
H         -3.89392        4.36085       -8.05696
H         -5.70953        0.76741       -9.57528
H         -4.72929       -0.51823       -7.72930
H         -6.04573        2.84844      -10.76943
H         -2.92022        4.40121       -5.93472
H         -2.93722        3.01901       -4.88955
H         -0.63900        3.56883       -5.21060
H         -0.86813        2.12082       -6.18297
H         -0.86918        4.99009       -7.25627
H          0.46557        3.83251       -7.37337
H         -1.04176        3.52447       -8.24456

--Link1--
%chk=JID_10936.chk
%mem=8GB
%nprocshared=4
# B3LYP/6-311++G(d,p) empiricaldispersion=gd3bj scf=xqc pop=npa geom=check

CID_142267366_JID_10936_Energie_neutraal

0 1

--Link1--
%chk=JID_10936.chk
%mem=8GB
%nprocshared=4
# B3LYP/6-311++G(d,p) empiricaldispersion=gd3bj scf=xqc pop=npa geom=check

CID_142267366_JID_10936_Energie_kation

1 2

--Link1--
%chk=JID_10936.chk
%mem=8GB
%nprocshared=4
# B3LYP/6-311++G(d,p) empiricaldispersion=gd3bj scf=xqc pop=npa geom=check

CID_142267366_JID_10936_Energie_anion

-1 2
