%chk=JID_2128.chk
%mem=8GB
%nprocshared=4
# opt freq B3LYP/6-31G(d) empiricaldispersion=gd3bj scf=xqc

CID_123198263_JID_2128_neutraal

0 1
C          0.95077        0.07569        0.04298
C          0.07856        0.38737        1.20920
C          0.57376        0.19842        2.62264
C          0.39370        1.58369        2.08169
C          0.75899        1.38292        3.54363
C          2.08675        1.91025        4.09130
C          1.85603        3.42250        4.37818
C          2.35046        1.24243        5.45485
C          3.30078        1.81233        3.10224
C          4.43576        0.79148        3.36881
C          4.05374       -0.65614        3.07060
C          5.65567        1.15720        2.50840
H          0.61791        0.63649       -0.83589
H          0.89594       -0.99158       -0.19280
H          1.99884        0.32942        0.23048
H         -0.96180        0.15303        1.01533
H          1.45641       -0.42451        2.61745
H         -0.47624        2.23866        2.05602
H         -0.04386        1.52422        4.26580
H          1.00284        3.57767        5.04932
H          2.73481        3.87708        4.84997
H          1.64415        3.97115        3.45299
H          2.43586        0.15632        5.36829
H          3.25987        1.63058        5.92544
H          1.52311        1.42941        6.15071
H          2.95268        1.68468        2.07133
H          3.79028        2.79720        3.09447
H          4.75812        0.86184        4.41322
H          3.72091       -0.77317        2.03391
H          4.91314       -1.32001        3.21759
H          3.26288       -1.01456        3.73189
H          6.01056        2.16654        2.74281
H          6.48522        0.46611        2.69290
H          5.41395        1.12099        1.44056

--Link1--
%chk=JID_2128.chk
%mem=8GB
%nprocshared=4
# B3LYP/6-311++G(d,p) empiricaldispersion=gd3bj scf=xqc pop=npa geom=check

CID_123198263_JID_2128_Energie_neutraal

0 1

--Link1--
%chk=JID_2128.chk
%mem=8GB
%nprocshared=4
# B3LYP/6-311++G(d,p) empiricaldispersion=gd3bj scf=xqc pop=npa geom=check

CID_123198263_JID_2128_Energie_kation

1 2

--Link1--
%chk=JID_2128.chk
%mem=8GB
%nprocshared=4
# B3LYP/6-311++G(d,p) empiricaldispersion=gd3bj scf=xqc pop=npa geom=check

CID_123198263_JID_2128_Energie_anion

-1 2
