%chk=JID_1509.chk
%mem=8GB
%nprocshared=4
# opt freq B3LYP/6-31G(d) empiricaldispersion=gd3bj scf=xqc

CID_89437660_JID_1509_neutraal

0 1
C         -2.41600        0.92500       -0.82300
C         -1.22044        0.28488       -0.08634
C         -1.12848       -1.19504       -0.50906
C          0.20259       -1.83222       -0.13190
C          1.34203       -1.01690       -0.72944
C          1.29455        0.46862       -0.31767
N         -0.03955        1.05429       -0.50027
C          2.23184        1.25976       -1.25487
C          1.81861        0.66305        1.11638
C         -1.49631        0.41326        1.42277
O          1.60844       -2.39306        3.59726
H         -2.55255        1.97404       -0.53354
H         -2.27949        0.89646       -1.91090
H         -3.34882        0.39552       -0.59604
H         -1.94742       -1.77219       -0.06175
H         -1.25193       -1.27968       -1.59765
H          0.30409       -1.90315        0.95532
H          0.24209       -2.85705       -0.51857
H          2.30050       -1.46421       -0.43766
H          1.28431       -1.10136       -1.82351
H         -0.07331        1.99735       -0.11379
H          2.26605        2.32270       -0.98680
H          3.25670        0.87343       -1.20569
H          1.90565        1.19189       -2.29983
H          2.88029        0.39582        1.18139
H          1.72797        1.70756        1.43682
H          1.29729        0.04301        1.84690
H         -0.77769       -0.13386        2.03533
H         -1.48343        1.46147        1.74360
H         -2.48608        0.01154        1.67157
H          1.03094       -3.11527        3.30742
H          2.25177       -2.30559        2.87798

--Link1--
%chk=JID_1509.chk
%mem=8GB
%nprocshared=4
# B3LYP/6-311++G(d,p) empiricaldispersion=gd3bj scf=xqc pop=npa geom=check

CID_89437660_JID_1509_Energie_neutraal

0 1

--Link1--
%chk=JID_1509.chk
%mem=8GB
%nprocshared=4
# B3LYP/6-311++G(d,p) empiricaldispersion=gd3bj scf=xqc pop=npa geom=check

CID_89437660_JID_1509_Energie_kation

1 2

--Link1--
%chk=JID_1509.chk
%mem=8GB
%nprocshared=4
# B3LYP/6-311++G(d,p) empiricaldispersion=gd3bj scf=xqc pop=npa geom=check

CID_89437660_JID_1509_Energie_anion

-1 2
