%chk=JID_9668.chk
%mem=8GB
%nprocshared=4
# opt freq B3LYP/6-31G(d) empiricaldispersion=gd3bj scf=xqc

CID_62161074_JID_9668_neutraal

0 1
C          0.95942       -0.05368       -0.07397
C          1.22638        1.34777        0.45987
N          1.50086        2.31461       -0.61226
C          0.39528        2.77387       -1.40521
C         -0.83847        3.07136       -0.80937
C         -1.91949        3.52984       -1.57201
C         -1.79376        3.70008       -2.95186
C         -0.58116        3.37065       -3.55994
C          0.49860        2.91405       -2.79494
C         -2.95951        4.15971       -3.77557
C          2.85558        2.45915       -0.97241
O          3.72956        1.66032       -0.62839
C          3.30254        3.63578       -1.75211
C          2.97918        4.95246       -1.41689
N          3.42157        6.00551       -2.13912
C          4.21953        5.75396       -3.20182
C          4.61638        4.48630       -3.58604
C          4.15542        3.40889       -2.84061
N          2.26094        5.30979       -0.27806
H          0.06817       -0.07371       -0.70923
H          0.80042       -0.75018        0.75507
H          1.80253       -0.41832       -0.66947
H          0.39494        1.68425        1.08440
H          2.09393        1.30797        1.13034
H         -0.98375        2.99373        0.26365
H         -2.85977        3.75927       -1.07470
H         -0.46677        3.45706       -4.63856
H          1.39951        2.62503       -3.32697
H         -2.62039        4.73695       -4.64225
H         -3.53351        3.29671       -4.12665
H         -3.61950        4.80954       -3.19126
H          4.55246        6.63354       -3.74601
H          5.27475        4.34185       -4.43514
H          4.45871        2.39642       -3.09606
H          2.12874        6.31717       -0.31481
H          1.38190        4.81029       -0.21224

--Link1--
%chk=JID_9668.chk
%mem=8GB
%nprocshared=4
# B3LYP/6-311++G(d,p) empiricaldispersion=gd3bj scf=xqc pop=npa geom=check

CID_62161074_JID_9668_Energie_neutraal

0 1

--Link1--
%chk=JID_9668.chk
%mem=8GB
%nprocshared=4
# B3LYP/6-311++G(d,p) empiricaldispersion=gd3bj scf=xqc pop=npa geom=check

CID_62161074_JID_9668_Energie_kation

1 2

--Link1--
%chk=JID_9668.chk
%mem=8GB
%nprocshared=4
# B3LYP/6-311++G(d,p) empiricaldispersion=gd3bj scf=xqc pop=npa geom=check

CID_62161074_JID_9668_Energie_anion

-1 2
