%chk=JID_8466.chk
%mem=8GB
%nprocshared=4
# opt freq B3LYP/6-31G(d) empiricaldispersion=gd3bj scf=xqc

CID_64343392_JID_8466_neutraal

0 1
C          1.07935        0.00124        0.06084
C          0.68344       -1.45674       -0.11673
C          1.06048       -2.34268        1.07632
C          0.41372       -1.97189        2.43053
C         -1.12793       -1.80241        2.36876
C         -1.93549       -3.00621        1.87376
C         -2.23558       -4.01746        2.94794
O         -2.27242       -3.83236        4.15169
O         -2.52420       -5.22906        2.43396
C          0.81580       -2.96928        3.54427
C          2.31330       -3.08163        3.84205
N          2.89382       -1.84290        4.31621
C          4.07001       -1.69527        5.00101
O          4.50487       -0.58061        5.26539
C          4.77191       -2.92086        5.45891
C          5.41192       -3.87567        4.47239
C          6.28225       -3.05996        5.38308
C          7.16042       -1.99728        4.81310
H          0.52070        0.47524        0.87282
H          0.87050        0.56117       -0.85639
H          2.14837        0.09359        0.27733
H         -0.38896       -1.52534       -0.32706
H          1.19409       -1.84662       -1.00592
H          0.81946       -3.38286        0.82574
H          2.15170       -2.30469        1.17779
H          0.80416       -0.98835        2.72015
H         -1.48828       -1.49124        3.35779
H         -1.35111       -0.95761        1.70565
H         -2.90716       -2.65290        1.50815
H         -1.43049       -3.50179        1.04009
H         -2.73504       -5.77725        3.21895
H          0.30424       -2.68544        4.47293
H          0.46209       -3.97163        3.27679
H          2.45947       -3.84955        4.60951
H          2.87483       -3.40086        2.95937
H          2.53438       -0.96019        3.97558
H          4.31555       -3.35518        6.34395
H          5.32678       -4.93790        4.67079
H          5.39405       -3.62137        3.41845
H          6.76774       -3.56455        6.21167
H          7.32734       -1.20800        5.55252
H          8.13366       -2.42242        4.54751
H          6.73804       -1.54310        3.91104

--Link1--
%chk=JID_8466.chk
%mem=8GB
%nprocshared=4
# B3LYP/6-311++G(d,p) empiricaldispersion=gd3bj scf=xqc pop=npa geom=check

CID_64343392_JID_8466_Energie_neutraal

0 1

--Link1--
%chk=JID_8466.chk
%mem=8GB
%nprocshared=4
# B3LYP/6-311++G(d,p) empiricaldispersion=gd3bj scf=xqc pop=npa geom=check

CID_64343392_JID_8466_Energie_kation

1 2

--Link1--
%chk=JID_8466.chk
%mem=8GB
%nprocshared=4
# B3LYP/6-311++G(d,p) empiricaldispersion=gd3bj scf=xqc pop=npa geom=check

CID_64343392_JID_8466_Energie_anion

-1 2
