%chk=JID_9009.chk
%mem=8GB
%nprocshared=4
# opt freq B3LYP/6-31G(d) empiricaldispersion=gd3bj scf=xqc

CID_107917624_JID_9009_neutraal

0 1
C          0.93508        0.01247       -0.07503
C          1.69568       -0.77132       -1.13558
C          3.12623       -1.08286       -0.70698
O          3.09477       -1.95628        0.42041
C          4.35022       -2.07642        1.09261
C          5.32468       -3.03678        0.40603
N          6.18534       -2.40105       -0.58268
C          7.13840       -1.46162       -0.26991
C          7.77371       -1.09471       -1.43240
C          7.21641       -1.86140       -2.48960
C          6.23250       -2.68617       -1.93438
C          5.49471       -3.58701       -2.72445
C          5.76646       -3.64846       -4.10066
C          6.73792       -2.82037       -4.66829
C          7.46713       -1.92704       -3.87408
C          5.00237       -4.60939       -4.95944
N          3.88521       -5.10774       -4.50727
O          3.32601       -6.00886       -5.42979
N          5.50232       -4.95708       -6.19420
H          0.84801       -0.55728        0.85540
H         -0.07628        0.23935       -0.42689
H          1.43764        0.95928        0.14696
H          1.15760       -1.70621       -1.33092
H          1.71284       -0.19411       -2.06658
H          3.63832       -1.57953       -1.53341
H          3.65629       -0.15538       -0.46225
H          4.77867       -1.08547        1.28094
H          4.10744       -2.50176        2.07308
H          6.00825       -3.46222        1.15096
H          4.78724       -3.86227       -0.06787
H          7.28425       -1.12491        0.74828
H          8.56580       -0.36208       -1.51387
H          4.73007       -4.22202       -2.28784
H          6.92847       -2.84137       -5.73791
H          8.21935       -1.28630       -4.32538
H          2.47656       -6.22873       -5.00414
H          6.49626       -5.15173       -6.20550
H          4.96297       -5.74057       -6.55686

--Link1--
%chk=JID_9009.chk
%mem=8GB
%nprocshared=4
# B3LYP/6-311++G(d,p) empiricaldispersion=gd3bj scf=xqc pop=npa geom=check

CID_107917624_JID_9009_Energie_neutraal

0 1

--Link1--
%chk=JID_9009.chk
%mem=8GB
%nprocshared=4
# B3LYP/6-311++G(d,p) empiricaldispersion=gd3bj scf=xqc pop=npa geom=check

CID_107917624_JID_9009_Energie_kation

1 2

--Link1--
%chk=JID_9009.chk
%mem=8GB
%nprocshared=4
# B3LYP/6-311++G(d,p) empiricaldispersion=gd3bj scf=xqc pop=npa geom=check

CID_107917624_JID_9009_Energie_anion

-1 2
