%chk=JID_7392.chk
%mem=8GB
%nprocshared=4
# opt freq B3LYP/6-31G(d) empiricaldispersion=gd3bj scf=xqc

CID_137180886_JID_7392_neutraal

0 1
C         -1.87700        0.04200       -0.01400
C         -1.54632        1.12704        0.79990
C         -0.38608        1.09483        1.57505
C          0.44521       -0.02071        1.52489
C          0.13417       -1.09866        0.69584
C         -1.04266       -1.07594       -0.06153
C          0.99152       -2.31254        0.63418
N          0.75107       -3.39105        1.33250
O         -0.38049       -3.25151        2.14398
C          2.20294       -2.32984       -0.29498
S          1.81518       -1.74043       -1.99029
O          2.98350       -2.03427       -2.88209
O          0.76872       -2.91605       -2.31400
S          3.66845       -1.43867        0.37740
O          3.34502        0.02092        0.51784
O          3.55959       -2.05924        1.85596
O          1.56941       -0.01612        2.30203
H         -2.79189        0.06263       -0.60155
H         -2.20193        1.99377        0.84183
H         -0.14287        1.93240        2.22309
H         -1.31890       -1.92932       -0.67664
H         -0.40686       -4.10122        2.62223
H          2.53194       -3.37000       -0.40924
H          1.06022       -3.32510       -3.16573
H          2.97658       -1.47783        2.41194
H          2.21097        0.53828        1.79529

--Link1--
%chk=JID_7392.chk
%mem=8GB
%nprocshared=4
# B3LYP/6-311++G(d,p) empiricaldispersion=gd3bj scf=xqc pop=npa geom=check

CID_137180886_JID_7392_Energie_neutraal

0 1

--Link1--
%chk=JID_7392.chk
%mem=8GB
%nprocshared=4
# B3LYP/6-311++G(d,p) empiricaldispersion=gd3bj scf=xqc pop=npa geom=check

CID_137180886_JID_7392_Energie_kation

1 2

--Link1--
%chk=JID_7392.chk
%mem=8GB
%nprocshared=4
# B3LYP/6-311++G(d,p) empiricaldispersion=gd3bj scf=xqc pop=npa geom=check

CID_137180886_JID_7392_Energie_anion

-1 2
