%chk=JID_9183.chk
%mem=8GB
%nprocshared=4
# opt freq B3LYP/6-31G(d) empiricaldispersion=gd3bj scf=xqc

CID_142940242_JID_9183_neutraal

0 1
C          2.49200        0.00400       -0.01400
C          0.99195        0.00813       -0.00005
C          0.27619       -1.10700       -0.45279
C         -1.12002       -1.11877       -0.40650
C         -1.81804       -0.01843        0.10293
C         -1.10502        1.09155        0.56941
C          0.29118        1.10210        0.52240
C         -3.29373       -0.03604        0.15826
C         -3.83791       -0.46323        1.31221
C         -5.27498       -0.55492        1.54284
C         -5.66322       -0.89393        2.78550
N         -6.12992       -0.28604        0.46554
C         -5.61398        0.25629       -0.75253
C         -6.44181        0.69510       -1.80636
C         -5.91248        1.21847       -2.99054
C         -4.53851        1.32264       -3.15144
C         -3.69308        0.91005       -2.12491
C         -4.21252        0.38343       -0.92696
C         -7.57403       -0.52519        0.50695
H          2.87363       -0.41318        0.92293
H          2.87312       -0.59317       -0.84907
H          2.88425        1.01916       -0.13564
H          0.80087       -1.97533       -0.84473
H         -1.66218       -1.99031       -0.76641
H         -1.63537        1.95142        0.97231
H          0.82769        1.97095        0.89677
H         -3.18571       -0.76294        2.13010
H         -4.94560       -1.08918        3.57651
H         -6.70240       -0.96908        3.07606
H         -7.52349        0.65412       -1.73139
H         -6.57951        1.54718       -3.78318
H         -4.12254        1.72926       -4.06906
H         -2.61965        1.00843       -2.26828
H         -7.91512       -1.06976       -0.38165
H         -8.11983        0.42120        0.58997
H         -7.87802       -1.15357        1.34919

--Link1--
%chk=JID_9183.chk
%mem=8GB
%nprocshared=4
# B3LYP/6-311++G(d,p) empiricaldispersion=gd3bj scf=xqc pop=npa geom=check

CID_142940242_JID_9183_Energie_neutraal

0 1

--Link1--
%chk=JID_9183.chk
%mem=8GB
%nprocshared=4
# B3LYP/6-311++G(d,p) empiricaldispersion=gd3bj scf=xqc pop=npa geom=check

CID_142940242_JID_9183_Energie_kation

1 2

--Link1--
%chk=JID_9183.chk
%mem=8GB
%nprocshared=4
# B3LYP/6-311++G(d,p) empiricaldispersion=gd3bj scf=xqc pop=npa geom=check

CID_142940242_JID_9183_Energie_anion

-1 2
