%chk=JID_8633.chk
%mem=8GB
%nprocshared=4
# opt freq B3LYP/6-31G(d) empiricaldispersion=gd3bj scf=xqc

CID_70170888_JID_8633_neutraal

0 1
C          1.06917        0.03473       -0.06332
C          0.88715        1.39110        0.59432
C          1.93238        2.45488        0.22467
C          1.81688        3.02531       -1.21453
C          2.40023        4.46165       -1.24045
C          2.44009        5.15977       -2.61201
C          1.27661        4.82959       -3.51417
C          1.07702        3.58835       -4.00507
C          1.97820        2.46799       -3.68542
C          2.44983        1.68715       -4.74972
C          3.37756        0.67372       -4.52324
C          3.84621        0.44252       -3.23458
C          3.36925        1.20358       -2.16390
C          2.40172        2.20102       -2.35933
C          0.30141        5.87189       -3.93335
O         -0.76785        5.63415       -4.47684
O          0.77358        7.11046       -3.64780
C         -0.08885        8.17234       -4.05734
H          0.88808        0.08350       -1.14006
H          0.35161       -0.68001        0.35333
H          2.07350       -0.36055        0.11480
H         -0.11875        1.76813        0.37454
H          0.92884        1.24447        1.68103
H          1.76493        3.28305        0.92769
H          2.94198        2.09326        0.44459
H          0.73575        3.10756       -1.39817
H          3.42100        4.45359       -0.83525
H          1.80654        5.08593       -0.55880
H          3.36937        4.88109       -3.12855
H          2.54286        6.23597       -2.43778
H          0.25332        3.36491       -4.67986
H          2.11709        1.88226       -5.76679
H          3.74740        0.07862       -5.35376
H          4.58447       -0.33581       -3.05790
H          3.76674        0.98768       -1.17708
H         -0.25239        8.14053       -5.13928
H         -1.04006        8.12189       -3.51858
H          0.39957        9.11917       -3.81066

--Link1--
%chk=JID_8633.chk
%mem=8GB
%nprocshared=4
# B3LYP/6-311++G(d,p) empiricaldispersion=gd3bj scf=xqc pop=npa geom=check

CID_70170888_JID_8633_Energie_neutraal

0 1

--Link1--
%chk=JID_8633.chk
%mem=8GB
%nprocshared=4
# B3LYP/6-311++G(d,p) empiricaldispersion=gd3bj scf=xqc pop=npa geom=check

CID_70170888_JID_8633_Energie_kation

1 2

--Link1--
%chk=JID_8633.chk
%mem=8GB
%nprocshared=4
# B3LYP/6-311++G(d,p) empiricaldispersion=gd3bj scf=xqc pop=npa geom=check

CID_70170888_JID_8633_Energie_anion

-1 2
