%chk=JID_1239.chk
%mem=8GB
%nprocshared=4
# opt freq B3LYP/6-31G(d) empiricaldispersion=gd3bj scf=xqc

CID_123883954_JID_1239_neutraal

0 1
C          0.96267        0.01121        0.09209
C          1.22911        0.82560        1.35172
N          1.71002        2.20631        1.19575
C          0.69886        3.15017        0.70033
C         -0.36097        3.46895        1.75040
C          3.01510        2.36080        0.51193
C          3.72101        3.60606        1.15096
C          5.02029        2.76465        1.21939
C          4.11302        1.50866        1.22556
C          5.89643        2.97168        2.43840
C          3.00724        2.36073       -1.01250
H          0.34540        0.55240       -0.62993
H          0.42705       -0.90749        0.35587
H          1.89540       -0.29470       -0.38890
H          0.30651        0.83658        1.94341
H          1.92445        0.25783        1.97995
H          1.16891        4.10845        0.44567
H          0.21938        2.78926       -0.21620
H          0.10000        3.81690        2.68111
H         -1.01702        4.26670        1.38601
H         -0.99188        2.60490        1.97676
H          3.78343        4.49962        0.52169
H          3.34509        3.91055        2.13708
H          5.61763        2.84295        0.30044
H          3.88288        1.16733        2.24252
H          4.49735        0.65672        0.65640
H          6.68994        2.21847        2.47363
H          6.36942        3.95833        2.40892
H          5.32113        2.90016        3.36739
H          2.65998        1.41483       -1.43046
H          2.37670        3.15891       -1.41758
H          4.01313        2.52492       -1.41478

--Link1--
%chk=JID_1239.chk
%mem=8GB
%nprocshared=4
# B3LYP/6-311++G(d,p) empiricaldispersion=gd3bj scf=xqc pop=npa geom=check

CID_123883954_JID_1239_Energie_neutraal

0 1

--Link1--
%chk=JID_1239.chk
%mem=8GB
%nprocshared=4
# B3LYP/6-311++G(d,p) empiricaldispersion=gd3bj scf=xqc pop=npa geom=check

CID_123883954_JID_1239_Energie_kation

1 2

--Link1--
%chk=JID_1239.chk
%mem=8GB
%nprocshared=4
# B3LYP/6-311++G(d,p) empiricaldispersion=gd3bj scf=xqc pop=npa geom=check

CID_123883954_JID_1239_Energie_anion

-1 2
