%chk=JID_3010.chk
%mem=8GB
%nprocshared=4
# opt freq B3LYP/6-31G(d) empiricaldispersion=gd3bj scf=xqc

CID_118922842_JID_3010_neutraal

0 1
C          1.08540       -0.04511        0.02590
C          0.51605        0.31714        1.39603
C          1.23073        1.53879        1.97157
C         -0.95473        0.54889        1.29884
N         -1.61000        1.65896        1.02357
C         -2.92634        1.27799        1.05223
C         -3.02532       -0.06463        1.33788
O         -1.75456       -0.54384        1.50108
C         -4.13364       -1.03205        1.49563
C         -5.08978       -0.67278        2.62893
C         -6.30383       -1.54311        2.33984
C         -6.39883       -1.60503        0.81689
C         -5.05702       -1.10477        0.27895
H          0.93628        0.76459       -0.69770
H          0.59991       -0.94146       -0.37641
H          2.15983       -0.24693        0.09177
H          0.69227       -0.52613        2.07590
H          1.11480        2.41634        1.32514
H          0.83096        1.79814        2.95834
H          2.30259        1.34371        2.08429
H         -3.72500        1.98175        0.86417
H         -3.72319       -2.03381        1.68388
H         -4.66346       -0.87658        3.61653
H         -5.37313        0.38691        2.59847
H         -7.21566       -1.14614        2.79584
H         -6.14357       -2.55154        2.73989
H         -7.21381       -0.97198        0.44900
H         -6.60455       -2.62830        0.48495
H         -5.19849       -0.12037       -0.18465
H         -4.65737       -1.76849       -0.49545

--Link1--
%chk=JID_3010.chk
%mem=8GB
%nprocshared=4
# B3LYP/6-311++G(d,p) empiricaldispersion=gd3bj scf=xqc pop=npa geom=check

CID_118922842_JID_3010_Energie_neutraal

0 1

--Link1--
%chk=JID_3010.chk
%mem=8GB
%nprocshared=4
# B3LYP/6-311++G(d,p) empiricaldispersion=gd3bj scf=xqc pop=npa geom=check

CID_118922842_JID_3010_Energie_kation

1 2

--Link1--
%chk=JID_3010.chk
%mem=8GB
%nprocshared=4
# B3LYP/6-311++G(d,p) empiricaldispersion=gd3bj scf=xqc pop=npa geom=check

CID_118922842_JID_3010_Energie_anion

-1 2
