%chk=JID_10315.chk
%mem=8GB
%nprocshared=4
# opt freq B3LYP/6-31G(d) empiricaldispersion=gd3bj scf=xqc

CID_105998520_JID_10315_neutraal

0 1
C          1.03465       -0.00274       -0.09376
C          1.33808       -1.48051        0.06380
O          1.64485       -1.77902        1.42486
C          2.99974       -1.91238        1.63327
N          3.81814       -1.02331        1.08288
C          5.09691       -1.22128        1.35224
N          5.55765       -2.21796        2.09649
C          4.64640       -3.04084        2.60364
N          3.34456       -2.91864        2.41897
N          5.03669       -4.15025        3.35986
C          6.15040       -4.85756        2.74211
C          6.41662       -6.19560        3.43862
C          5.23016       -7.17437        3.39947
C          5.58656       -8.57300        3.91865
C          6.37085       -9.39218        2.89884
C          5.67362       -9.36495        1.54528
C          5.38933       -7.93362        1.12067
O          4.62025       -7.24850        2.10701
N          5.97448       -0.30887        0.77489
C          7.13840       -0.00909        1.57976
H          0.23581        0.30044        0.59121
H          0.72238        0.22090       -1.11792
H          1.90708        0.61283        0.14482
H          0.43814       -2.05288       -0.18844
H          2.11764       -1.80836       -0.63656
H          4.18241       -4.70428        3.39766
H          5.96178       -5.03028        1.67495
H          7.06261       -4.25214        2.82009
H          7.29109       -6.64538        2.95440
H          6.69764       -6.01960        4.48473
H          4.45787       -6.77758        4.06953
H          4.65163       -9.10937        4.12794
H          6.13734       -8.51037        4.86367
H          7.38621       -8.99173        2.79834
H          6.46993      -10.42627        3.24701
H          6.28423       -9.87174        0.79087
H          4.72573       -9.91110        1.62654
H          6.31672       -7.38610        0.92161
H          4.80886       -7.93134        0.19237
H          5.41565        0.49544        0.51074
H          7.72589        0.76942        1.08251
H          6.85744        0.36791        2.56946
H          7.78819       -0.88350        1.69385

--Link1--
%chk=JID_10315.chk
%mem=8GB
%nprocshared=4
# B3LYP/6-311++G(d,p) empiricaldispersion=gd3bj scf=xqc pop=npa geom=check

CID_105998520_JID_10315_Energie_neutraal

0 1

--Link1--
%chk=JID_10315.chk
%mem=8GB
%nprocshared=4
# B3LYP/6-311++G(d,p) empiricaldispersion=gd3bj scf=xqc pop=npa geom=check

CID_105998520_JID_10315_Energie_kation

1 2

--Link1--
%chk=JID_10315.chk
%mem=8GB
%nprocshared=4
# B3LYP/6-311++G(d,p) empiricaldispersion=gd3bj scf=xqc pop=npa geom=check

CID_105998520_JID_10315_Energie_anion

-1 2
