%chk=JID_3310.chk
%mem=8GB
%nprocshared=4
# opt freq B3LYP/6-31G(d) empiricaldispersion=gd3bj scf=xqc

CID_115386802_JID_3310_neutraal

0 1
C          0.90520        0.03108       -0.00682
C         -0.19355       -0.97857        0.34592
C         -1.63208       -0.44571        0.11517
S         -1.90354        0.00616       -1.67300
C         -1.60610       -1.61180       -2.45080
C         -0.20383       -2.15660       -2.20665
S          0.13582       -2.59621       -0.46789
C         -2.77749       -1.37187        0.67324
C         -2.54383       -1.75229        2.15901
O         -2.38861       -0.56791        2.94627
C         -2.17316       -0.87500        4.31769
N         -4.08304       -0.67814        0.51478
C         -5.23059       -1.56595        0.58994
H          0.74223        0.96982        0.53460
H          0.95135        0.27125       -1.07252
H          1.89046       -0.34484        0.29240
H         -0.06612       -1.16905        1.41643
H         -1.70317        0.51502        0.64287
H         -1.74156       -1.47007       -3.52869
H         -2.37482       -2.32493       -2.13677
H          0.56316       -1.46268       -2.56605
H         -0.08135       -3.07666       -2.78876
H         -2.80450       -2.30155        0.09390
H         -3.38485       -2.33732        2.54761
H         -1.65257       -2.38086        2.25957
H         -3.02883       -1.42035        4.72711
H         -1.25769       -1.46201        4.43875
H         -2.06148        0.06366        4.86685
H         -4.14954        0.04453        1.23542
H         -5.34517       -2.01668        1.57939
H         -6.14113       -0.99481        0.38292
H         -5.16789       -2.36005       -0.16090

--Link1--
%chk=JID_3310.chk
%mem=8GB
%nprocshared=4
# B3LYP/6-311++G(d,p) empiricaldispersion=gd3bj scf=xqc pop=npa geom=check

CID_115386802_JID_3310_Energie_neutraal

0 1

--Link1--
%chk=JID_3310.chk
%mem=8GB
%nprocshared=4
# B3LYP/6-311++G(d,p) empiricaldispersion=gd3bj scf=xqc pop=npa geom=check

CID_115386802_JID_3310_Energie_kation

1 2

--Link1--
%chk=JID_3310.chk
%mem=8GB
%nprocshared=4
# B3LYP/6-311++G(d,p) empiricaldispersion=gd3bj scf=xqc pop=npa geom=check

CID_115386802_JID_3310_Energie_anion

-1 2
