%chk=JID_6699.chk
%mem=8GB
%nprocshared=4
# opt freq B3LYP/6-31G(d) empiricaldispersion=gd3bj scf=xqc

CID_106848638_JID_6699_neutraal

0 1
C          0.96392        0.07998       -0.04797
C          0.66023        1.55101       -0.27378
S          1.13613        2.08673       -1.95229
C          2.91066        2.14068       -1.78746
C          3.69908        1.31059       -2.58606
C          5.09492        1.34585       -2.48829
C          5.73366        2.22015       -1.59483
C          4.92670        3.06225       -0.80749
C          3.53213        3.02633       -0.90615
C          7.25038        2.29378       -1.43622
C          7.71623        1.72818       -0.11066
C          7.40952        0.50972        0.47137
C          8.05350        0.32638        1.72844
C          8.83433        1.40702        2.06898
S          8.79021        2.63276        0.87898
N          7.98858        1.63093       -2.51983
H          0.45349       -0.55263       -0.78197
H          0.61696       -0.22164        0.94601
H          2.03783       -0.12655       -0.09649
H         -0.41763        1.71447       -0.17233
H          1.15247        2.16891        0.48318
H          3.23589        0.62896       -3.29578
H          5.67370        0.68942       -3.13336
H          5.38535        3.76100       -0.10963
H          2.94226        3.70580       -0.29646
H          7.51082        3.35900       -1.50127
H          6.74527       -0.21546        0.01554
H          7.94779       -0.55327        2.35163
H          9.43081        1.53762        2.96161
H          8.97919        1.82735       -2.38275
H          7.89533        0.62461       -2.39910

--Link1--
%chk=JID_6699.chk
%mem=8GB
%nprocshared=4
# B3LYP/6-311++G(d,p) empiricaldispersion=gd3bj scf=xqc pop=npa geom=check

CID_106848638_JID_6699_Energie_neutraal

0 1

--Link1--
%chk=JID_6699.chk
%mem=8GB
%nprocshared=4
# B3LYP/6-311++G(d,p) empiricaldispersion=gd3bj scf=xqc pop=npa geom=check

CID_106848638_JID_6699_Energie_kation

1 2

--Link1--
%chk=JID_6699.chk
%mem=8GB
%nprocshared=4
# B3LYP/6-311++G(d,p) empiricaldispersion=gd3bj scf=xqc pop=npa geom=check

CID_106848638_JID_6699_Energie_anion

-1 2
