%chk=JID_7383.chk
%mem=8GB
%nprocshared=4
# opt freq B3LYP/6-31G(d) empiricaldispersion=gd3bj scf=xqc

CID_66189794_JID_7383_neutraal

0 1
C          1.08630        0.03900       -0.03211
O          0.46008        0.11457        1.22815
C          0.90669       -0.79767        2.13014
C          0.01515       -1.03659        3.18559
C          0.33115       -1.93384        4.20130
C          1.55303       -2.58867        4.17417
C          2.44705       -2.34157        3.13012
C          2.14111       -1.44203        2.07653
C          3.17298       -1.17367        0.99872
C          4.34529       -0.46239        1.65461
N          5.31781        0.12767        2.19873
N          3.54967       -2.46900        0.35795
C          4.47017       -2.36855       -0.78373
C          5.96248       -2.31831       -0.40866
N          6.21787       -3.25598        0.69735
N          7.37488       -3.22809        1.15796
N          8.43513       -3.21074        1.57314
H          0.32672        0.42422       -0.72927
H          1.23194       -0.97251       -0.42813
H          1.86519        0.80172       -0.13509
H         -0.94051       -0.51743        3.20824
H         -0.37136       -2.11355        5.01022
H          1.81874       -3.28349        4.96688
H          3.40690       -2.85553        3.15887
H          3.02337       -0.52039        0.16732
H          4.00008       -3.07083        1.05162
H          4.31642       -3.28127       -1.37292
H          4.21025       -1.53813       -1.45006
H          6.56493       -2.59591       -1.28188
H          6.24843       -1.30144       -0.12009

--Link1--
%chk=JID_7383.chk
%mem=8GB
%nprocshared=4
# B3LYP/6-311++G(d,p) empiricaldispersion=gd3bj scf=xqc pop=npa geom=check

CID_66189794_JID_7383_Energie_neutraal

0 1

--Link1--
%chk=JID_7383.chk
%mem=8GB
%nprocshared=4
# B3LYP/6-311++G(d,p) empiricaldispersion=gd3bj scf=xqc pop=npa geom=check

CID_66189794_JID_7383_Energie_kation

1 2

--Link1--
%chk=JID_7383.chk
%mem=8GB
%nprocshared=4
# B3LYP/6-311++G(d,p) empiricaldispersion=gd3bj scf=xqc pop=npa geom=check

CID_66189794_JID_7383_Energie_anion

-1 2
