%chk=JID_7313.chk
%mem=8GB
%nprocshared=4
# opt freq B3LYP/6-31G(d) empiricaldispersion=gd3bj scf=xqc

CID_84626354_JID_7313_neutraal

0 1
C          1.07019       -0.03789        0.06031
C          0.56814        0.56526       -1.25277
C          1.23764       -0.11025       -2.45338
C         -0.94831        0.51524       -1.33093
C         -1.68533        1.70374       -1.18117
C         -3.09375        1.68427       -1.25191
C         -3.74861        0.47813       -1.47901
C         -3.03721       -0.72558       -1.61056
C         -1.63930       -0.68536       -1.52872
N         -5.10686        0.75387       -1.53937
C         -5.34322        2.09807       -1.27463
C         -4.09146        2.68190       -1.13192
C         -6.70618        2.76300       -1.21197
C         -6.65889        4.06605       -0.38558
C         -7.20351        3.10003       -2.62592
N         -7.66884        1.87791       -0.54775
C         -6.10662       -0.25386       -1.83354
H          0.82195       -1.10217        0.13934
H          0.62456        0.47223        0.92164
H          2.15830        0.05923        0.13956
H          0.88106        1.61784       -1.27136
H          1.05873       -1.19064       -2.47170
H          0.86629        0.30751       -3.39572
H          2.32202        0.04242       -2.42314
H         -1.17855        2.64904       -1.00819
H         -3.54299       -1.67190       -1.77051
H         -1.09376       -1.62175       -1.62502
H         -3.90403        3.73102       -0.94569
H         -6.01552        4.81894       -0.85594
H         -7.65485        4.51595       -0.28925
H         -6.27550        3.88981        0.62713
H         -7.29612        2.21132       -3.25878
H         -8.18501        3.58830       -2.59913
H         -6.51068        3.78257       -3.13320
H         -7.34697        1.71717        0.40690
H         -8.56456        2.35548       -0.46389
H         -5.65715       -1.05924       -2.41922
H         -6.48404       -0.64884       -0.88738
H         -6.90881        0.17677       -2.43284

--Link1--
%chk=JID_7313.chk
%mem=8GB
%nprocshared=4
# B3LYP/6-311++G(d,p) empiricaldispersion=gd3bj scf=xqc pop=npa geom=check

CID_84626354_JID_7313_Energie_neutraal

0 1

--Link1--
%chk=JID_7313.chk
%mem=8GB
%nprocshared=4
# B3LYP/6-311++G(d,p) empiricaldispersion=gd3bj scf=xqc pop=npa geom=check

CID_84626354_JID_7313_Energie_kation

1 2

--Link1--
%chk=JID_7313.chk
%mem=8GB
%nprocshared=4
# B3LYP/6-311++G(d,p) empiricaldispersion=gd3bj scf=xqc pop=npa geom=check

CID_84626354_JID_7313_Energie_anion

-1 2
