%chk=JID_10176.chk
%mem=8GB
%nprocshared=4
# opt freq B3LYP/6-31G(d) empiricaldispersion=gd3bj scf=xqc

CID_63845132_JID_10176_neutraal

0 1
C          1.04707        0.06427       -0.06045
C          0.78539       -1.41874        0.02916
O          0.21174       -1.88055        1.01798
C          1.38634       -2.31075       -1.06736
C          0.89095       -1.95907       -2.48297
C         -0.08078       -2.99320       -3.06754
N         -1.00162       -3.40128       -2.01971
C         -0.33812       -4.17796       -0.96250
C          1.13621       -3.79165       -0.76709
C         -2.22162       -4.05157       -2.51983
C         -3.43613       -3.79843       -1.60137
O         -4.19624       -2.64946       -2.01247
C         -3.59386       -1.44537       -1.77615
C         -3.10106       -1.05905       -0.53420
C         -2.52145        0.20380       -0.38291
C         -2.42682        1.08379       -1.46467
C         -2.95271        0.70331       -2.69898
C         -3.54639       -0.55426       -2.84786
O         -1.80521        2.27040       -1.18717
C         -1.57965        3.14623       -2.28453
H          0.61684        0.56411        0.81244
H          0.59458        0.49086       -0.95545
H          2.12534        0.24261       -0.06597
H          2.46882       -2.13211       -1.01887
H          0.40495       -0.97838       -2.50234
H          1.75342       -1.88565       -3.15731
H         -0.60898       -2.51394       -3.90108
H          0.45782       -3.85284       -3.48568
H         -0.36604       -5.25351       -1.17960
H         -0.88112       -4.03352       -0.02213
H          1.75716       -4.39385       -1.44415
H          1.45249       -4.04955        0.25068
H         -2.47399       -3.67356       -3.51865
H         -2.05478       -5.13017       -2.62917
H         -4.11917       -4.64870       -1.71515
H         -3.18283       -3.76856       -0.53605
H         -3.15746       -1.71772        0.32604
H         -2.12932        0.49524        0.58866
H         -2.92255        1.35726       -3.56310
H         -3.95861       -0.84823       -3.80902
H         -0.96072        2.66841       -3.05162
H         -2.52527        3.50373       -2.70475
H         -1.03121        4.01633       -1.91084

--Link1--
%chk=JID_10176.chk
%mem=8GB
%nprocshared=4
# B3LYP/6-311++G(d,p) empiricaldispersion=gd3bj scf=xqc pop=npa geom=check

CID_63845132_JID_10176_Energie_neutraal

0 1

--Link1--
%chk=JID_10176.chk
%mem=8GB
%nprocshared=4
# B3LYP/6-311++G(d,p) empiricaldispersion=gd3bj scf=xqc pop=npa geom=check

CID_63845132_JID_10176_Energie_kation

1 2

--Link1--
%chk=JID_10176.chk
%mem=8GB
%nprocshared=4
# B3LYP/6-311++G(d,p) empiricaldispersion=gd3bj scf=xqc pop=npa geom=check

CID_63845132_JID_10176_Energie_anion

-1 2
