%chk=JID_3162.chk
%mem=8GB
%nprocshared=4
# opt freq B3LYP/6-31G(d) empiricaldispersion=gd3bj scf=xqc

CID_62198582_JID_3162_neutraal

0 1
C          0.93888        0.07350        0.02936
C          1.03774        1.49278       -0.50823
C          1.27535        1.55902       -2.01865
C          0.20236        0.89229       -2.88809
C         -1.23378        1.42370       -2.69837
C         -1.34098        2.91071       -3.04729
N         -2.16184        0.70313       -3.57925
C         -2.47541       -0.60725       -3.23163
C         -3.01274       -0.94535       -1.99464
C         -3.31133       -2.27862       -1.72282
C         -3.07351       -3.23716       -2.69693
C         -2.55144       -2.81374       -3.90586
N         -2.25332       -1.52619       -4.19042
H          0.05015       -0.43868       -0.35083
H          0.86932        0.08986        1.12176
H          1.82133       -0.51300       -0.24502
H          0.13472        2.05065       -0.23802
H          1.87253        1.99730       -0.00668
H          1.38519        2.60950       -2.31208
H          2.23918        1.08454       -2.24359
H          0.49507        1.01275       -3.94005
H          0.22512       -0.18878       -2.70372
H         -1.54175        1.31251       -1.65333
H         -0.99597        3.10609       -4.06879
H         -2.38129        3.24924       -2.98095
H         -0.75124        3.52649       -2.36178
H         -1.80998        0.63433       -4.53416
H         -3.22097       -0.18228       -1.25385
H         -3.73466       -2.55987       -0.76339
H         -3.29702       -4.28335       -2.52388
H         -2.35323       -3.51965       -4.70706

--Link1--
%chk=JID_3162.chk
%mem=8GB
%nprocshared=4
# B3LYP/6-311++G(d,p) empiricaldispersion=gd3bj scf=xqc pop=npa geom=check

CID_62198582_JID_3162_Energie_neutraal

0 1

--Link1--
%chk=JID_3162.chk
%mem=8GB
%nprocshared=4
# B3LYP/6-311++G(d,p) empiricaldispersion=gd3bj scf=xqc pop=npa geom=check

CID_62198582_JID_3162_Energie_kation

1 2

--Link1--
%chk=JID_3162.chk
%mem=8GB
%nprocshared=4
# B3LYP/6-311++G(d,p) empiricaldispersion=gd3bj scf=xqc pop=npa geom=check

CID_62198582_JID_3162_Energie_anion

-1 2
