%chk=JID_8013.chk
%mem=8GB
%nprocshared=4
# opt freq B3LYP/6-31G(d) empiricaldispersion=gd3bj scf=xqc

CID_10338723_JID_8013_neutraal

0 1
C         -2.42700        0.00600        0.12900
N         -0.95360        0.04472        0.16634
C         -0.27484       -1.01558        0.66058
C          1.11242       -1.00778        0.70620
C          1.80218        0.10521        0.24215
C          1.09424        1.17439       -0.29548
C         -0.29456        1.12270       -0.31762
O          3.17465        0.02655        0.29243
C          3.88334        1.20288        0.43472
C          3.71517        1.97781        1.58863
C          4.45060        3.14727        1.74734
C          5.36691        3.53123        0.76753
C          5.57229        2.74609       -0.37938
C          6.51666        3.12420       -1.34776
C          6.73564        2.33840       -2.47941
C          6.01304        1.16485       -2.65945
C          5.06777        0.77644       -1.70835
C          4.82853        1.55528       -0.55527
H         -2.71713       -0.52898       -0.77859
H         -2.78857       -0.51118        1.02164
H         -2.81626        1.02714        0.11922
H         -0.85286       -1.86525        1.01328
H          1.65538       -1.86341        1.10171
H          1.60552        2.04221       -0.70579
H         -0.88705        1.93649       -0.72674
H          3.02847        1.66806        2.37060
H          4.32846        3.75599        2.64028
H          5.94061        4.44496        0.91567
H          7.10111        4.03394       -1.22323
H          7.47804        2.64033       -3.21462
H          6.19133        0.54672       -3.53606
H          4.52522       -0.15228       -1.86870

--Link1--
%chk=JID_8013.chk
%mem=8GB
%nprocshared=4
# B3LYP/6-311++G(d,p) empiricaldispersion=gd3bj scf=xqc pop=npa geom=check

CID_10338723_JID_8013_Energie_neutraal

0 1

--Link1--
%chk=JID_8013.chk
%mem=8GB
%nprocshared=4
# B3LYP/6-311++G(d,p) empiricaldispersion=gd3bj scf=xqc pop=npa geom=check

CID_10338723_JID_8013_Energie_kation

1 2

--Link1--
%chk=JID_8013.chk
%mem=8GB
%nprocshared=4
# B3LYP/6-311++G(d,p) empiricaldispersion=gd3bj scf=xqc pop=npa geom=check

CID_10338723_JID_8013_Energie_anion

-1 2
