%chk=JID_8595.chk
%mem=8GB
%nprocshared=4
# opt freq B3LYP/6-31G(d) empiricaldispersion=gd3bj scf=xqc

CID_82576654_JID_8595_neutraal

0 1
C          0.91909        0.05784        0.01038
C          0.78848        1.56980        0.07878
O          1.51041        2.20212       -0.98495
C          2.80331        2.50732       -0.61196
C          3.00176        3.66627        0.14254
C          4.28559        4.01846        0.51976
C          5.35977        3.22308        0.12064
C          5.18082        2.06656       -0.68127
C          6.24409        1.23892       -1.13411
C          5.93964        0.10962       -1.90829
C          4.62216       -0.16534       -2.22678
N          3.60621        0.61584       -1.81468
C          3.86345        1.70528       -1.05851
C          4.27317       -1.36686       -3.05131
C          7.71009        1.50143       -0.84485
C          8.50692        1.96218       -2.07373
C          8.14866        3.35182       -2.60398
N          8.55338        4.41159       -1.68606
H          0.69138       -0.30764       -0.99608
H          0.23967       -0.41910        0.72288
H          1.93790       -0.26049        0.25039
H         -0.26459        1.83940       -0.05853
H          1.08248        1.94160        1.06841
H          2.15475        4.28174        0.43055
H          4.45515        4.90777        1.12103
H          6.34654        3.52690        0.45364
H          6.72784       -0.54949       -2.26147
H          4.57760       -2.28162       -2.53338
H          3.19383       -1.41853       -3.22795
H          4.77478       -1.31892       -4.02279
H          7.85441        2.19404       -0.01251
H          8.14568        0.55742       -0.48829
H          9.57511        1.94222       -1.82040
H          8.37948        1.24031       -2.89020
H          8.67632        3.50657       -3.55181
H          7.07807        3.43155       -2.81825
H          8.38066        5.31440       -2.12902
H          7.96078        4.39665       -0.85983

--Link1--
%chk=JID_8595.chk
%mem=8GB
%nprocshared=4
# B3LYP/6-311++G(d,p) empiricaldispersion=gd3bj scf=xqc pop=npa geom=check

CID_82576654_JID_8595_Energie_neutraal

0 1

--Link1--
%chk=JID_8595.chk
%mem=8GB
%nprocshared=4
# B3LYP/6-311++G(d,p) empiricaldispersion=gd3bj scf=xqc pop=npa geom=check

CID_82576654_JID_8595_Energie_kation

1 2

--Link1--
%chk=JID_8595.chk
%mem=8GB
%nprocshared=4
# B3LYP/6-311++G(d,p) empiricaldispersion=gd3bj scf=xqc pop=npa geom=check

CID_82576654_JID_8595_Energie_anion

-1 2
