%chk=JID_7155.chk
%mem=8GB
%nprocshared=4
# opt freq B3LYP/6-31G(d) empiricaldispersion=gd3bj scf=xqc

CID_134332049_JID_7155_neutraal

0 1
C          0.97711       -0.07371       -0.06359
C          0.36079       -1.41105       -0.30898
C         -0.31761       -2.21244        0.54405
C         -0.89181       -3.42842       -0.07776
N         -2.23099       -3.43423       -0.24093
C         -2.76346       -4.52930       -0.81720
C         -2.02404       -5.62565       -1.24347
C         -0.63395       -5.62455       -1.08050
C         -0.07217       -4.48341       -0.48207
C          0.26260       -6.78961       -1.52505
C          1.25967       -6.29439       -2.59440
C          1.04789       -7.33611       -0.31312
C         -0.51707       -7.97520       -2.13681
C         -0.58576       -2.00272        2.05003
C          0.67570       -1.50661        2.79567
C         -1.72512       -0.98261        2.23780
C         -1.00260       -3.30914        2.78062
H          0.46127        0.49803        0.70916
H          0.91801        0.52525       -0.97906
H          2.03357       -0.18184        0.19760
H          0.44790       -1.72416       -1.35143
H         -3.84326       -4.50756       -0.93512
H         -2.55661       -6.45475       -1.69506
H          0.99893       -4.40574       -0.32172
H          1.92798       -5.51677       -2.20826
H          1.89349       -7.11361       -2.95353
H          0.73368       -5.87526       -3.46043
H          0.36802       -7.66514        0.48173
H          1.66793       -8.19410       -0.59829
H          1.71963       -6.58595        0.11839
H         -1.23106       -8.39995       -1.42152
H         -1.07088       -7.67454       -3.03383
H          0.16201       -8.78341       -2.43393
H          0.93719       -0.47477        2.55201
H          0.52639       -1.52675        3.88224
H          1.54198       -2.14021        2.57239
H         -2.65420       -1.33151        1.77251
H         -1.93264       -0.81504        3.30117
H         -1.48223       -0.01021        1.79779
H         -1.95959       -3.70031        2.41909
H         -0.24396       -4.09202        2.66502
H         -1.12954       -3.13609        3.85644

--Link1--
%chk=JID_7155.chk
%mem=8GB
%nprocshared=4
# B3LYP/6-311++G(d,p) empiricaldispersion=gd3bj scf=xqc pop=npa geom=check

CID_134332049_JID_7155_Energie_neutraal

0 1

--Link1--
%chk=JID_7155.chk
%mem=8GB
%nprocshared=4
# B3LYP/6-311++G(d,p) empiricaldispersion=gd3bj scf=xqc pop=npa geom=check

CID_134332049_JID_7155_Energie_kation

1 2

--Link1--
%chk=JID_7155.chk
%mem=8GB
%nprocshared=4
# B3LYP/6-311++G(d,p) empiricaldispersion=gd3bj scf=xqc pop=npa geom=check

CID_134332049_JID_7155_Energie_anion

-1 2
