%chk=JID_10077.chk
%mem=8GB
%nprocshared=4
# opt freq B3LYP/6-31G(d) empiricaldispersion=gd3bj scf=xqc

CID_116071237_JID_10077_neutraal

0 1
C          0.98685        0.09029        0.04092
C          0.71468       -1.26122       -0.65210
C          1.53075       -2.33114        0.10308
C         -0.78697       -1.57710       -0.52141
C          1.07305       -1.21292       -2.14382
N          1.16366        0.00869       -2.73300
C          1.38068        0.11061       -4.05831
C          1.52966       -1.02109       -4.84713
C          1.46504       -2.27620       -4.25150
C          1.22097       -2.37838       -2.88563
C          1.63321       -3.52292       -5.02951
O          1.55038       -4.65357       -4.58711
O          1.92048       -3.29875       -6.32376
N          1.40430        1.35032       -4.70593
C          1.30024        2.61739       -3.95400
C          2.56710        2.83287       -3.09772
C          1.30164        3.74632       -5.01398
C          0.02869        2.74166       -3.05368
O         -1.18932        2.14947       -3.51417
C         -1.77313        2.76069       -4.64552
H          0.78561        0.03172        1.11714
H          0.34837        0.88523       -0.35604
H          2.03060        0.40090       -0.08533
H          1.32669       -2.29519        1.17984
H          1.28963       -3.34750       -0.22592
H          2.60733       -2.18056       -0.03789
H         -1.39754       -0.82568       -1.03668
H         -1.03428       -2.55249       -0.95635
H         -1.09802       -1.59591        0.52930
H          1.68015       -0.92045       -5.91636
H          1.12771       -3.35736       -2.42750
H          2.00887       -4.19808       -6.70390
H          2.18197        1.36593       -5.35889
H          3.47572        2.74891       -3.70600
H          2.56399        3.82605       -2.63432
H          2.65201        2.09784       -2.29142
H          0.51322        3.62128       -5.75996
H          1.17740        4.73085       -4.54948
H          2.24727        3.76161       -5.57027
H          0.22815        2.27370       -2.08627
H         -0.16380        3.79580       -2.81341
H         -1.74437        3.85184       -4.57306
H         -1.28291        2.41532       -5.55810
H         -2.82015        2.44816       -4.69614

--Link1--
%chk=JID_10077.chk
%mem=8GB
%nprocshared=4
# B3LYP/6-311++G(d,p) empiricaldispersion=gd3bj scf=xqc pop=npa geom=check

CID_116071237_JID_10077_Energie_neutraal

0 1

--Link1--
%chk=JID_10077.chk
%mem=8GB
%nprocshared=4
# B3LYP/6-311++G(d,p) empiricaldispersion=gd3bj scf=xqc pop=npa geom=check

CID_116071237_JID_10077_Energie_kation

1 2

--Link1--
%chk=JID_10077.chk
%mem=8GB
%nprocshared=4
# B3LYP/6-311++G(d,p) empiricaldispersion=gd3bj scf=xqc pop=npa geom=check

CID_116071237_JID_10077_Energie_anion

-1 2
