%chk=JID_3510.chk
%mem=8GB
%nprocshared=4
# opt freq B3LYP/6-31G(d) empiricaldispersion=gd3bj scf=xqc

CID_143926320_JID_3510_neutraal

0 1
C          0.99586       -0.09984        0.00376
C          0.81175       -1.24647        0.97177
C          1.12176        2.04686       -4.63040
C          0.48334        0.84459       -3.94462
C          1.03262       -0.55276       -4.35483
C          2.54823       -0.63543       -4.08742
C          0.76864       -0.81849       -5.84859
C          0.32080       -1.61067       -3.54873
N         -0.75648       -1.51525       -2.79574
N         -0.99680       -2.77440       -2.28866
C         -0.05480       -3.55310       -2.77273
O          0.81948       -2.88945       -3.58908
C          0.17751       -4.99114       -2.56535
H          1.41479        0.77190        0.51507
H          0.03706        0.18805       -0.43693
H          1.67742       -0.38583       -0.80169
H          1.77056       -1.53383        1.41349
H          0.13187       -0.96141        1.78015
H          0.39309       -2.11835        0.46060
H          2.18588        2.12972       -4.39275
H          0.63922        2.96713       -4.28390
H          1.00554        2.00474       -5.71646
H          0.59979        0.97864       -2.86109
H         -0.59769        0.88244       -4.13701
H          2.94567       -1.63139       -4.31671
H          3.10867        0.07608       -4.70258
H          2.77778       -0.42764       -3.03627
H         -0.29824       -0.72854       -6.08473
H          1.31618       -0.11942       -6.48899
H          1.08036       -1.83008       -6.13566
H          0.02125       -5.54197       -3.49745
H          1.20094       -5.17072       -2.22295
H         -0.50907       -5.38942       -1.81246

--Link1--
%chk=JID_3510.chk
%mem=8GB
%nprocshared=4
# B3LYP/6-311++G(d,p) empiricaldispersion=gd3bj scf=xqc pop=npa geom=check

CID_143926320_JID_3510_Energie_neutraal

0 1

--Link1--
%chk=JID_3510.chk
%mem=8GB
%nprocshared=4
# B3LYP/6-311++G(d,p) empiricaldispersion=gd3bj scf=xqc pop=npa geom=check

CID_143926320_JID_3510_Energie_kation

1 2

--Link1--
%chk=JID_3510.chk
%mem=8GB
%nprocshared=4
# B3LYP/6-311++G(d,p) empiricaldispersion=gd3bj scf=xqc pop=npa geom=check

CID_143926320_JID_3510_Energie_anion

-1 2
