%chk=JID_3878.chk
%mem=8GB
%nprocshared=4
# opt freq B3LYP/6-31G(d) empiricaldispersion=gd3bj scf=xqc

CID_18405541_JID_3878_neutraal

0 1
C          0.91652        0.05472        0.00609
C          0.40346       -0.80251        1.17305
C          1.22313       -0.45124        2.43165
C         -1.06967       -0.44875        1.44597
C          0.57088       -2.32514        0.90080
C         -0.11055       -2.88009       -0.35547
C          0.71907       -2.73411       -1.61246
O          1.93397       -2.58462       -1.64182
C         -0.02849       -2.83257       -2.91868
O         -1.13040       -3.36551       -2.95038
C          0.56448       -2.24698       -4.18598
O          0.94003       -2.89500       -5.14076
O          0.58435       -0.90804       -4.15019
H          0.31434       -0.08673       -0.89703
H          1.95802       -0.18495       -0.23365
H          0.87445        1.12171        0.25449
H          1.13279        0.61195        2.68199
H          0.88197       -1.02669        3.29966
H          2.28724       -0.66752        2.28386
H         -1.69463       -0.58503        0.55798
H         -1.48363       -1.06968        2.24818
H         -1.17204        0.59881        1.75249
H          1.63991       -2.57382        0.87907
H          0.15794       -2.86756        1.76271
H         -0.27370       -3.95640       -0.22163
H         -1.08784       -2.41474       -0.50633
H          0.96936       -0.64561       -5.01344

--Link1--
%chk=JID_3878.chk
%mem=8GB
%nprocshared=4
# B3LYP/6-311++G(d,p) empiricaldispersion=gd3bj scf=xqc pop=npa geom=check

CID_18405541_JID_3878_Energie_neutraal

0 1

--Link1--
%chk=JID_3878.chk
%mem=8GB
%nprocshared=4
# B3LYP/6-311++G(d,p) empiricaldispersion=gd3bj scf=xqc pop=npa geom=check

CID_18405541_JID_3878_Energie_kation

1 2

--Link1--
%chk=JID_3878.chk
%mem=8GB
%nprocshared=4
# B3LYP/6-311++G(d,p) empiricaldispersion=gd3bj scf=xqc pop=npa geom=check

CID_18405541_JID_3878_Energie_anion

-1 2
