%chk=JID_7293.chk
%mem=8GB
%nprocshared=4
# opt freq B3LYP/6-31G(d) empiricaldispersion=gd3bj scf=xqc

CID_72228958_JID_7293_neutraal

0 1
C          1.03044        0.09236        0.02330
C          0.45765        1.42707       -0.48318
C          1.20244        1.80927       -1.77044
C         -1.03986        1.22861       -0.76151
O          0.70883        2.35602        0.59730
C          0.25290        3.63154        0.42522
C          1.09075        4.59977       -0.12584
C          0.65263        5.92077       -0.23017
C         -0.63941        6.25626        0.18970
C         -1.44810        5.29961        0.80597
C         -0.99409        3.98734        0.93688
O         -1.15821        7.51932        0.05729
C         -1.48506        7.81806       -1.31955
C         -2.88109        7.48430       -1.77171
C         -2.50397        8.91102       -1.50167
O          1.53296        6.80649       -0.79447
C          1.82574        7.90034        0.07550
H          0.90512       -0.71104       -0.71033
H          0.54134       -0.21207        0.95612
H          2.09854        0.18855        0.25123
H          1.14055        1.01153       -2.51883
H          0.78328        2.71367       -2.22388
H          2.26005        2.01048       -1.56695
H         -1.58470        1.00490        0.16235
H         -1.49152        2.12818       -1.19311
H         -1.20860        0.40837       -1.46794
H          2.08958        4.33450       -0.45751
H         -2.43131        5.57590        1.17538
H         -1.61492        3.24501        1.42967
H         -0.68915        7.78002       -2.05885
H         -3.01255        7.17525       -2.80169
H         -3.54355        6.99202       -1.07030
H         -2.90677        9.38405       -0.61388
H         -2.38455        9.57612       -2.34818
H          1.10431        8.70978       -0.06650
H          1.86509        7.59848        1.12870
H          2.81291        8.28543       -0.19823

--Link1--
%chk=JID_7293.chk
%mem=8GB
%nprocshared=4
# B3LYP/6-311++G(d,p) empiricaldispersion=gd3bj scf=xqc pop=npa geom=check

CID_72228958_JID_7293_Energie_neutraal

0 1

--Link1--
%chk=JID_7293.chk
%mem=8GB
%nprocshared=4
# B3LYP/6-311++G(d,p) empiricaldispersion=gd3bj scf=xqc pop=npa geom=check

CID_72228958_JID_7293_Energie_kation

1 2

--Link1--
%chk=JID_7293.chk
%mem=8GB
%nprocshared=4
# B3LYP/6-311++G(d,p) empiricaldispersion=gd3bj scf=xqc pop=npa geom=check

CID_72228958_JID_7293_Energie_anion

-1 2
