%chk=JID_6011.chk
%mem=8GB
%nprocshared=4
# opt freq B3LYP/6-31G(d) empiricaldispersion=gd3bj scf=xqc

CID_131551881_JID_6011_neutraal

0 1
C         -3.13600        0.85400       -0.61300
C         -1.92151        0.18538        0.04611
C         -1.65851       -1.15676       -0.64403
C         -0.37452       -1.78407       -0.13074
C          0.72769       -0.76422       -0.07301
C          0.45156        0.61446       -0.07048
O         -0.82443        1.09431       -0.14521
C          1.50621        1.54445       -0.02338
C          2.83006        1.06989        0.04384
C          3.10198       -0.29637        0.06462
C          2.05469       -1.20891        0.00947
C          1.33586        3.02802       -0.03606
O          2.31986        3.76482       -0.04149
C          0.01197        3.62395       -0.03032
N         -1.03354        4.13593       -0.02108
C         -2.20049        0.04272        1.54963
H         -3.33660        1.83357       -0.16372
H         -2.95017        1.03776       -1.67765
H         -4.03713        0.23905       -0.51898
H         -2.49698       -1.84950       -0.50622
H         -1.55027       -0.99218       -1.72522
H         -0.52525       -2.20343        0.87081
H         -0.09249       -2.61030       -0.79431
H          3.66626        1.76765        0.08309
H          4.13017       -0.64644        0.12062
H          2.27700       -2.27455        0.02346
H         -1.33186       -0.33974        2.09502
H         -2.42656        1.01889        1.99461
H         -3.04699       -0.62616        1.73699

--Link1--
%chk=JID_6011.chk
%mem=8GB
%nprocshared=4
# B3LYP/6-311++G(d,p) empiricaldispersion=gd3bj scf=xqc pop=npa geom=check

CID_131551881_JID_6011_Energie_neutraal

0 1

--Link1--
%chk=JID_6011.chk
%mem=8GB
%nprocshared=4
# B3LYP/6-311++G(d,p) empiricaldispersion=gd3bj scf=xqc pop=npa geom=check

CID_131551881_JID_6011_Energie_kation

1 2

--Link1--
%chk=JID_6011.chk
%mem=8GB
%nprocshared=4
# B3LYP/6-311++G(d,p) empiricaldispersion=gd3bj scf=xqc pop=npa geom=check

CID_131551881_JID_6011_Energie_anion

-1 2
