%chk=JID_9958.chk
%mem=8GB
%nprocshared=4
# opt freq B3LYP/6-31G(d) empiricaldispersion=gd3bj scf=xqc

CID_62161180_JID_9958_neutraal

0 1
C          2.49600       -0.00700       -0.12600
C          1.19348       -0.04995        0.67116
C          0.68238        1.37167        0.93810
C         -0.64431        1.36074        1.69062
C         -1.69405        0.52385        0.96632
C         -1.19667       -0.90325        0.70388
C          0.13114       -0.88592       -0.06200
C         -2.32438       -1.73131        0.08104
O         -3.34222       -1.96925        0.74413
C         -2.22376       -2.23318       -1.34554
C         -2.40085       -1.16976       -2.40156
C         -1.61359       -1.16545       -3.56038
C         -1.74932       -0.16235       -4.52077
C         -2.72343        0.82193       -4.36445
C         -3.57312        0.80156       -3.25383
C         -3.40409       -0.19335       -2.27923
C         -4.60589        1.87449       -3.06927
O         -0.64062       -2.11659       -3.73041
C         -1.10343       -3.13229       -4.62354
H          2.34976        0.46456       -1.10374
H          3.26260        0.55996        0.41257
H          2.88216       -1.01811       -0.29252
H          1.40502       -0.52966        1.63614
H          1.42320        1.93246        1.52037
H          0.55351        1.90669       -0.01159
H         -1.00921        2.38727        1.80859
H         -0.48935        0.95915        2.69961
H         -1.95294        1.01099        0.01843
H         -2.61315        0.50375        1.56438
H         -0.99920       -1.38454        1.67287
H         -0.01431       -0.47306       -1.06660
H          0.49900       -1.91112       -0.19119
H         -3.00395       -2.99075       -1.49447
H         -1.27249       -2.76535       -1.44344
H         -1.09459       -0.14357       -5.38726
H         -2.81821        1.60208       -5.11623
H         -4.06219       -0.19796       -1.41010
H         -4.17382        2.71760       -2.52133
H         -4.97458        2.23206       -4.03639
H         -5.46903        1.49515       -2.51245
H         -2.01036       -3.61268       -4.23906
H         -1.28039       -2.73197       -5.62760
H         -0.32221       -3.89475       -4.69649

--Link1--
%chk=JID_9958.chk
%mem=8GB
%nprocshared=4
# B3LYP/6-311++G(d,p) empiricaldispersion=gd3bj scf=xqc pop=npa geom=check

CID_62161180_JID_9958_Energie_neutraal

0 1

--Link1--
%chk=JID_9958.chk
%mem=8GB
%nprocshared=4
# B3LYP/6-311++G(d,p) empiricaldispersion=gd3bj scf=xqc pop=npa geom=check

CID_62161180_JID_9958_Energie_kation

1 2

--Link1--
%chk=JID_9958.chk
%mem=8GB
%nprocshared=4
# B3LYP/6-311++G(d,p) empiricaldispersion=gd3bj scf=xqc pop=npa geom=check

CID_62161180_JID_9958_Energie_anion

-1 2
