%chk=JID_7053.chk
%mem=8GB
%nprocshared=4
# opt freq B3LYP/6-31G(d) empiricaldispersion=gd3bj scf=xqc

CID_3072332_JID_7053_neutraal

0 1
C          0.93316        0.03296       -0.06668
C          0.70949        1.20963       -1.00788
C          1.40020        1.02692       -2.37688
N          0.70218        0.00643       -3.17969
C          1.32064       -0.19812       -4.49011
C          2.66635       -0.93396       -4.47649
C          2.65280       -2.31035       -3.81548
C          1.99373       -3.37156       -4.67897
O          2.62917       -3.88961       -5.60322
C          0.52446       -3.69840       -4.48610
C          0.08127       -3.84745       -3.05243
C         -0.97783       -3.07363       -2.55648
C         -1.39276       -3.20699       -1.23099
C         -0.76166       -4.12177       -0.39124
C          0.27819       -4.91111       -0.87848
C          0.69442       -4.78089       -2.20439
O         -0.69791        1.36907       -1.20806
H          0.48039       -0.88570       -0.45007
H          0.45642        0.22928        0.89997
H          1.99966       -0.14278        0.10248
H          1.08245        2.12396       -0.53393
H          1.34707        1.98067       -2.91535
H          2.45428        0.77525       -2.22245
H          0.66649       -0.86965       -2.65891
H          0.61335       -0.75985       -5.10830
H          1.44199        0.76749       -4.99680
H          3.01015       -1.03306       -5.51395
H          3.41342       -0.31222       -3.96908
H          3.69070       -2.63897       -3.67209
H          2.22254       -2.28703       -2.81260
H         -0.05769       -2.92420       -4.99610
H          0.31313       -4.64281       -5.00301
H         -1.48998       -2.35744       -3.19694
H         -2.21029       -2.59710       -0.85343
H         -1.08709       -4.22583        0.64077
H          0.76100       -5.63440       -0.22590
H          1.49924       -5.41653       -2.56960
H         -0.88961        0.89481       -2.04322

--Link1--
%chk=JID_7053.chk
%mem=8GB
%nprocshared=4
# B3LYP/6-311++G(d,p) empiricaldispersion=gd3bj scf=xqc pop=npa geom=check

CID_3072332_JID_7053_Energie_neutraal

0 1

--Link1--
%chk=JID_7053.chk
%mem=8GB
%nprocshared=4
# B3LYP/6-311++G(d,p) empiricaldispersion=gd3bj scf=xqc pop=npa geom=check

CID_3072332_JID_7053_Energie_kation

1 2

--Link1--
%chk=JID_7053.chk
%mem=8GB
%nprocshared=4
# B3LYP/6-311++G(d,p) empiricaldispersion=gd3bj scf=xqc pop=npa geom=check

CID_3072332_JID_7053_Energie_anion

-1 2
