%chk=JID_5037.chk
%mem=8GB
%nprocshared=4
# opt freq B3LYP/6-31G(d) empiricaldispersion=gd3bj scf=xqc

CID_131464963_JID_5037_neutraal

0 1
C          0.96123       -0.04352        0.08126
C          0.33440       -1.23659       -0.59734
N          0.01352       -2.24473        0.15825
C         -0.67271       -3.29038       -0.38920
C         -1.08651       -3.41056       -1.65086
C         -0.75231       -2.34541       -2.60903
O         -1.12139       -2.46992       -3.77592
C          0.01990       -1.13628       -2.08722
O          1.00893       -0.56702       -2.91262
C          2.23334       -1.21376       -3.26712
C          2.14580       -2.55940       -3.99096
C          2.36379       -3.76599       -3.08547
N          3.57067       -3.61623       -2.27721
C          3.46098       -2.46130       -1.39188
C          3.31958       -1.16951       -2.18737
H          0.24669        0.37418        0.79666
H          1.22189        0.73267       -0.64118
H          1.85947       -0.35701        0.61996
H         -0.91095       -4.08902        0.31236
H         -1.64029       -4.26544       -2.01438
H         -0.76699       -0.36473       -2.08723
H          2.60125       -0.52214       -4.03857
H          1.21036       -2.65858       -4.54611
H          2.94442       -2.58198       -4.74655
H          1.50407       -3.94004       -2.43638
H          2.46759       -4.66137       -3.70862
H          3.70469       -4.45734       -1.71453
H          4.36834       -2.39992       -0.78022
H          2.63023       -2.59780       -0.69598
H          4.28216       -0.99403       -2.68898
H          3.17318       -0.32191       -1.51260

--Link1--
%chk=JID_5037.chk
%mem=8GB
%nprocshared=4
# B3LYP/6-311++G(d,p) empiricaldispersion=gd3bj scf=xqc pop=npa geom=check

CID_131464963_JID_5037_Energie_neutraal

0 1

--Link1--
%chk=JID_5037.chk
%mem=8GB
%nprocshared=4
# B3LYP/6-311++G(d,p) empiricaldispersion=gd3bj scf=xqc pop=npa geom=check

CID_131464963_JID_5037_Energie_kation

1 2

--Link1--
%chk=JID_5037.chk
%mem=8GB
%nprocshared=4
# B3LYP/6-311++G(d,p) empiricaldispersion=gd3bj scf=xqc pop=npa geom=check

CID_131464963_JID_5037_Energie_anion

-1 2
