%chk=JID_7606.chk
%mem=8GB
%nprocshared=4
# opt freq B3LYP/6-31G(d) empiricaldispersion=gd3bj scf=xqc

CID_66418150_JID_7606_neutraal

0 1
C         -2.78600        0.49700       -0.00900
C         -1.47076       -0.16111        0.21211
C         -1.15371       -1.36532        0.83317
S          0.56580       -1.56772        0.79523
C          0.74134       -0.07613       -0.00875
N         -0.37330        0.54718       -0.27644
N          1.94701        0.40426       -0.35026
S         -2.08205       -2.62091        1.64328
C         -3.80776       -2.42328        1.17226
C         -4.66822       -2.18943        2.41121
C         -4.40904       -0.92024        3.31403
C         -5.75096       -0.43390        2.85692
C         -6.64750        0.60323        2.95546
C         -7.84188        0.48450        2.24157
C         -8.10114       -0.65849        1.46045
C         -7.16774       -1.69559        1.38059
C         -5.99983       -1.54722        2.09174
H         -3.39628        0.49368        0.89490
H         -2.64692        1.54669       -0.29139
H         -3.32658        0.01245       -0.82706
H          1.94485        1.14371       -1.04303
H          2.71663       -0.24798       -0.42895
H         -3.94976       -1.65187        0.42042
H         -4.12102       -3.35854        0.69325
H         -4.74897       -3.10766        3.01140
H         -3.55041       -0.30116        3.03756
H         -4.32251       -1.15069        4.38251
H         -6.43748        1.47631        3.56260
H         -8.58075        1.28098        2.29009
H         -9.03822       -0.73129        0.91339
H         -7.35750       -2.57605        0.77773

--Link1--
%chk=JID_7606.chk
%mem=8GB
%nprocshared=4
# B3LYP/6-311++G(d,p) empiricaldispersion=gd3bj scf=xqc pop=npa geom=check

CID_66418150_JID_7606_Energie_neutraal

0 1

--Link1--
%chk=JID_7606.chk
%mem=8GB
%nprocshared=4
# B3LYP/6-311++G(d,p) empiricaldispersion=gd3bj scf=xqc pop=npa geom=check

CID_66418150_JID_7606_Energie_kation

1 2

--Link1--
%chk=JID_7606.chk
%mem=8GB
%nprocshared=4
# B3LYP/6-311++G(d,p) empiricaldispersion=gd3bj scf=xqc pop=npa geom=check

CID_66418150_JID_7606_Energie_anion

-1 2
