%chk=JID_197.chk
%mem=8GB
%nprocshared=4
# opt freq B3LYP/6-31G(d) empiricaldispersion=gd3bj scf=xqc

CID_53632851_JID_197_neutraal

0 1
C          0.93942        0.07578        0.02423
C          0.79280        1.50436       -0.45902
C          1.18074        1.67638       -1.91459
O          0.30005        1.74319       -2.78057
N          2.53016        1.77018       -2.25205
C          3.69126        1.68089       -1.35556
C          4.37973        0.30061       -1.37926
C          5.24471        0.09867       -2.62570
C          5.24757        0.13465       -0.12862
N          2.82280        2.03900       -3.62455
H          0.50386       -0.63187       -0.68852
H          0.43341       -0.05083        0.98665
H          1.98718       -0.19397        0.16946
H         -0.26041        1.80060       -0.37241
H          1.34668        2.20272        0.17435
H          4.39901        2.47259       -1.63289
H          3.36360        1.90869       -0.33829
H          3.61945       -0.48907       -1.37106
H          5.98399        0.89964       -2.73220
H          5.78538       -0.85272       -2.57213
H          4.63660        0.06955       -3.53388
H          4.64196        0.21819        0.78006
H          5.72943       -0.84878       -0.11552
H          6.03201        0.89799       -0.08575
H          2.29728        1.34400       -4.16819
H          2.34029        2.91351       -3.85794

--Link1--
%chk=JID_197.chk
%mem=8GB
%nprocshared=4
# B3LYP/6-311++G(d,p) empiricaldispersion=gd3bj scf=xqc pop=npa geom=check

CID_53632851_JID_197_Energie_neutraal

0 1

--Link1--
%chk=JID_197.chk
%mem=8GB
%nprocshared=4
# B3LYP/6-311++G(d,p) empiricaldispersion=gd3bj scf=xqc pop=npa geom=check

CID_53632851_JID_197_Energie_kation

1 2

--Link1--
%chk=JID_197.chk
%mem=8GB
%nprocshared=4
# B3LYP/6-311++G(d,p) empiricaldispersion=gd3bj scf=xqc pop=npa geom=check

CID_53632851_JID_197_Energie_anion

-1 2
