%chk=JID_2300.chk
%mem=8GB
%nprocshared=4
# opt freq B3LYP/6-31G(d) empiricaldispersion=gd3bj scf=xqc

CID_145607622_JID_2300_neutraal

0 1
C          1.08848        0.03668        0.02874
C          0.42255        0.73664        1.19161
C         -1.71485       -2.68006        0.42958
C         -1.36804       -3.04486       -0.99616
C          1.40542        3.88035       -1.39153
C          0.82265        3.06335       -2.27381
C         -0.61303        2.85923       -2.30603
C         -1.44623        2.13336       -3.07157
C         -1.25354        1.23881       -4.19147
C         -2.28218        0.68056       -4.84125
O          0.04321        0.97120       -4.55589
O          1.62485        2.39763       -3.16610
H          0.41934        0.00596       -0.83599
H          1.35049       -0.99096        0.29739
H          2.00419        0.55982       -0.26213
H          0.16102        1.76466        0.92470
H         -0.49328        0.21376        1.48227
H          1.09182        0.76536        2.05660
H         -2.31748       -3.46741        0.89207
H         -2.28509       -1.74684        0.45972
H         -0.80652       -2.54838        1.02490
H         -0.78991       -3.97325       -1.02522
H         -2.27695       -3.18616       -1.58848
H         -0.77323       -2.25424       -1.46269
H          0.84455        4.43859       -0.65162
H          2.48376        4.00294       -1.39723
H         -1.12085        3.43661       -1.52872
H         -2.49941        2.23849       -2.79852
H         -2.13813        0.00669       -5.67849
H         -3.31164        0.88212       -4.56000
H          0.02482        0.35221       -5.30847
H          1.04435        1.83083       -3.71114

--Link1--
%chk=JID_2300.chk
%mem=8GB
%nprocshared=4
# B3LYP/6-311++G(d,p) empiricaldispersion=gd3bj scf=xqc pop=npa geom=check

CID_145607622_JID_2300_Energie_neutraal

0 1

--Link1--
%chk=JID_2300.chk
%mem=8GB
%nprocshared=4
# B3LYP/6-311++G(d,p) empiricaldispersion=gd3bj scf=xqc pop=npa geom=check

CID_145607622_JID_2300_Energie_kation

1 2

--Link1--
%chk=JID_2300.chk
%mem=8GB
%nprocshared=4
# B3LYP/6-311++G(d,p) empiricaldispersion=gd3bj scf=xqc pop=npa geom=check

CID_145607622_JID_2300_Energie_anion

-1 2
