%chk=JID_5290.chk
%mem=8GB
%nprocshared=4
# opt freq B3LYP/6-31G(d) empiricaldispersion=gd3bj scf=xqc

CID_105748731_JID_5290_neutraal

0 1
C          0.99373       -0.02721        0.09602
C          0.57849        1.30620        0.71264
C          1.49596        2.47928        0.35755
C          1.24038        3.07921       -1.02928
C         -0.26325        3.25143       -1.26852
C         -1.04424        1.99925       -0.90836
O         -0.79074        1.61258        0.43774
N          1.83143        2.24717       -2.08598
C          3.14280        2.44082       -2.52548
C          3.58725        1.81834       -3.69700
N          4.84523        1.88161       -4.20329
C          5.74558        2.57330       -3.49466
C          5.43176        3.20300       -2.30171
C          4.12574        3.11989       -1.81006
N          7.02924        2.65574       -4.02641
H          0.95524       -0.01934       -0.99591
H          0.31227       -0.82001        0.42347
H          2.01025       -0.29742        0.39876
H          0.63511        1.17065        1.79990
H          1.29702        3.27696        1.08674
H          2.54394        2.19061        0.49289
H          1.67880        4.08424       -1.07722
H         -0.46841        3.53902       -2.30610
H         -0.61529        4.07153       -0.62910
H         -0.82777        1.17187       -1.59164
H         -2.11686        2.20369       -0.99207
H          1.20363        2.06715       -2.86735
H          2.90495        1.22016       -4.29532
H          6.18644        3.75906       -1.75692
H          3.90752        3.60638       -0.86596
H          7.02894        2.08780       -4.87049
H          7.72413        2.33676       -3.36205

--Link1--
%chk=JID_5290.chk
%mem=8GB
%nprocshared=4
# B3LYP/6-311++G(d,p) empiricaldispersion=gd3bj scf=xqc pop=npa geom=check

CID_105748731_JID_5290_Energie_neutraal

0 1

--Link1--
%chk=JID_5290.chk
%mem=8GB
%nprocshared=4
# B3LYP/6-311++G(d,p) empiricaldispersion=gd3bj scf=xqc pop=npa geom=check

CID_105748731_JID_5290_Energie_kation

1 2

--Link1--
%chk=JID_5290.chk
%mem=8GB
%nprocshared=4
# B3LYP/6-311++G(d,p) empiricaldispersion=gd3bj scf=xqc pop=npa geom=check

CID_105748731_JID_5290_Energie_anion

-1 2
