%chk=JID_4320.chk
%mem=8GB
%nprocshared=4
# opt freq B3LYP/6-31G(d) empiricaldispersion=gd3bj scf=xqc

CID_104392409_JID_4320_neutraal

0 1
C          1.08342        0.04799       -0.02717
C          0.21922       -0.05602       -1.28326
C          0.67039       -1.15713       -2.28023
N          0.93115       -2.46506       -1.65677
C          1.23089       -3.51650       -2.65224
C          2.65532       -3.43362       -3.19438
C          0.95051       -4.93068       -2.09590
O          0.31974       -5.75226       -2.77253
N          1.45427       -5.36017       -0.89720
C          2.07708       -4.61868        0.14355
C          2.94128       -5.33691        1.14859
C          3.56038       -4.38149        0.17583
O         -1.17517       -0.08676       -0.95224
C         -1.66832       -1.31583       -0.44001
H          1.00233       -0.83911        0.60792
H          0.75854        0.89709        0.58404
H          2.13704        0.18996       -0.28727
H          0.34220        0.89564       -1.81628
H         -0.10691       -1.26203       -3.04652
H          1.58731       -0.81155       -2.77169
H          1.72772       -2.37645       -1.02844
H          0.53141       -3.40854       -3.49251
H          3.39885       -3.38904       -2.39461
H          2.88941       -4.30963       -3.80937
H          2.78815       -2.54441       -3.81915
H          1.16177       -6.30852       -0.68731
H          1.42082       -3.86847        0.57998
H          2.87172       -5.03190        2.18659
H          3.13656       -6.39400        1.01028
H          4.17517       -4.80430       -0.61039
H          3.91433       -3.42974        0.55411
H         -1.72414       -2.06938       -1.22980
H         -1.07056       -1.67717        0.40021
H         -2.68658       -1.14261       -0.07958

--Link1--
%chk=JID_4320.chk
%mem=8GB
%nprocshared=4
# B3LYP/6-311++G(d,p) empiricaldispersion=gd3bj scf=xqc pop=npa geom=check

CID_104392409_JID_4320_Energie_neutraal

0 1

--Link1--
%chk=JID_4320.chk
%mem=8GB
%nprocshared=4
# B3LYP/6-311++G(d,p) empiricaldispersion=gd3bj scf=xqc pop=npa geom=check

CID_104392409_JID_4320_Energie_kation

1 2

--Link1--
%chk=JID_4320.chk
%mem=8GB
%nprocshared=4
# B3LYP/6-311++G(d,p) empiricaldispersion=gd3bj scf=xqc pop=npa geom=check

CID_104392409_JID_4320_Energie_anion

-1 2
