%chk=JID_8661.chk
%mem=8GB
%nprocshared=4
# opt freq B3LYP/6-31G(d) empiricaldispersion=gd3bj scf=xqc

CID_28890240_JID_8661_neutraal

0 1
C          0.96286        0.09285        0.00017
C          0.24868        0.31466       -1.30985
O         -0.78310       -0.30714       -1.57263
N          0.68833        1.28048       -2.17277
C          1.87515        2.03009       -2.11870
C          1.76330        3.40597       -2.35015
C          2.87022        4.24421       -2.19000
C          4.10142        3.71307       -1.81123
C          4.23968        2.33607       -1.64687
C          3.14417        1.48895       -1.86063
O          3.42805        0.14056       -1.84487
C          3.12296       -0.61275       -2.96912
C          3.38491       -0.25636       -4.30214
C          2.92332       -1.15426       -5.27071
N          2.37646       -2.36810       -5.02418
C          2.23471       -2.70488       -3.73005
C          2.59442       -1.87654       -2.68328
N          3.88632        0.99125       -4.70541
H          1.66930       -0.73267       -0.07866
H          0.21714       -0.16446        0.75980
H          1.46921        0.99505        0.34961
H         -0.02465        1.56987       -2.83132
H          0.80221        3.84833       -2.60105
H          2.76368        5.31599       -2.34040
H          4.95678        4.36861       -1.66772
H          5.21059        1.91479       -1.39863
H          3.00013       -0.91272       -6.32768
H          1.80138       -3.68384       -3.54666
H          2.44418       -2.20484       -1.66201
H          4.30835        0.99128       -5.62859
H          4.49087        1.42416       -4.01560

--Link1--
%chk=JID_8661.chk
%mem=8GB
%nprocshared=4
# B3LYP/6-311++G(d,p) empiricaldispersion=gd3bj scf=xqc pop=npa geom=check

CID_28890240_JID_8661_Energie_neutraal

0 1

--Link1--
%chk=JID_8661.chk
%mem=8GB
%nprocshared=4
# B3LYP/6-311++G(d,p) empiricaldispersion=gd3bj scf=xqc pop=npa geom=check

CID_28890240_JID_8661_Energie_kation

1 2

--Link1--
%chk=JID_8661.chk
%mem=8GB
%nprocshared=4
# B3LYP/6-311++G(d,p) empiricaldispersion=gd3bj scf=xqc pop=npa geom=check

CID_28890240_JID_8661_Energie_anion

-1 2
