%chk=JID_6606.chk
%mem=8GB
%nprocshared=4
# opt freq B3LYP/6-31G(d) empiricaldispersion=gd3bj scf=xqc

CID_66557205_JID_6606_neutraal

0 1
C          0.91104        0.00802       -0.04497
C          0.19803       -1.29229       -0.33310
C          0.71521       -2.45367        0.11432
C          0.23783       -3.87456       -0.05668
C         -0.33891       -4.32448       -1.40612
C          0.50157       -3.93479       -2.59822
C          0.10861       -2.89970       -3.45490
C          0.87753       -2.55986       -4.56618
C          2.07695       -3.22925       -4.80605
C          2.50474       -4.24849       -3.95205
C          1.71505       -4.59972       -2.85341
O          3.69695       -4.82124       -4.30207
C          4.17753       -5.86764       -3.46827
O         -1.09154       -2.27147       -3.26054
C         -0.93008       -1.00499       -2.60525
C         -1.10740       -1.13788       -1.08654
H          0.27526        0.66397        0.55872
H          1.15768        0.52418       -0.97812
H          1.84652       -0.14173        0.50444
H          1.64345       -2.39712        0.68583
H          1.10560       -4.51674        0.15125
H         -0.48376       -4.09815        0.73862
H         -0.42983       -5.41949       -1.39811
H         -1.36978       -3.97415       -1.51743
H          0.54301       -1.78323       -5.24686
H          2.68010       -2.96113       -5.66962
H          2.01738       -5.39352       -2.17830
H          4.36545       -5.50761       -2.45133
H          3.48898       -6.71910       -3.46643
H          5.13090       -6.21224       -3.88037
H          0.00559       -0.50253       -2.88307
H         -1.74172       -0.37559       -2.98896
H         -1.59473       -0.22698       -0.71402
H         -1.79671       -1.95231       -0.84286

--Link1--
%chk=JID_6606.chk
%mem=8GB
%nprocshared=4
# B3LYP/6-311++G(d,p) empiricaldispersion=gd3bj scf=xqc pop=npa geom=check

CID_66557205_JID_6606_Energie_neutraal

0 1

--Link1--
%chk=JID_6606.chk
%mem=8GB
%nprocshared=4
# B3LYP/6-311++G(d,p) empiricaldispersion=gd3bj scf=xqc pop=npa geom=check

CID_66557205_JID_6606_Energie_kation

1 2

--Link1--
%chk=JID_6606.chk
%mem=8GB
%nprocshared=4
# B3LYP/6-311++G(d,p) empiricaldispersion=gd3bj scf=xqc pop=npa geom=check

CID_66557205_JID_6606_Energie_anion

-1 2
