%chk=JID_5127.chk
%mem=8GB
%nprocshared=4
# opt freq B3LYP/6-31G(d) empiricaldispersion=gd3bj scf=xqc

CID_80581052_JID_5127_neutraal

0 1
C          1.01684       -0.07972        0.05798
C          0.01565       -1.22104        0.13171
N          0.41828       -2.26843        1.04063
C          0.55964       -2.14740        2.40746
C          0.87542       -3.34479        2.91783
N          0.92971       -4.26153        1.89109
C          0.64737       -3.61360        0.66944
O          0.60653       -4.11366       -0.44104
C          1.20528       -5.66906        2.01909
C          2.66959       -5.92586        2.35962
O          3.06256       -5.74103        3.51966
C          3.67308       -6.26168        1.23601
C          3.05797       -7.11017        0.11636
C          4.21576       -4.94828        0.66099
C          4.83829       -7.06259        1.84938
H          1.12645        0.41684        1.02743
H          0.68782        0.66785       -0.67034
H          2.00375       -0.44490       -0.24489
H         -0.96036       -0.84653        0.46009
H         -0.11734       -1.65050       -0.86737
H          0.42197       -1.20913        2.92258
H          1.06331       -3.61855        3.94593
H          0.59342       -6.07108        2.83560
H          0.89984       -6.19775        1.11566
H          2.33782       -6.53876       -0.47881
H          3.82657       -7.46795       -0.57853
H          2.53891       -7.98582        0.52207
H          4.64141       -4.31620        1.44891
H          4.99983       -5.13411       -0.08150
H          3.42701       -4.36835        0.17198
H          5.36220       -6.48719        2.62133
H          4.47634       -7.98528        2.31801
H          5.57743       -7.33854        1.08871

--Link1--
%chk=JID_5127.chk
%mem=8GB
%nprocshared=4
# B3LYP/6-311++G(d,p) empiricaldispersion=gd3bj scf=xqc pop=npa geom=check

CID_80581052_JID_5127_Energie_neutraal

0 1

--Link1--
%chk=JID_5127.chk
%mem=8GB
%nprocshared=4
# B3LYP/6-311++G(d,p) empiricaldispersion=gd3bj scf=xqc pop=npa geom=check

CID_80581052_JID_5127_Energie_kation

1 2

--Link1--
%chk=JID_5127.chk
%mem=8GB
%nprocshared=4
# B3LYP/6-311++G(d,p) empiricaldispersion=gd3bj scf=xqc pop=npa geom=check

CID_80581052_JID_5127_Energie_anion

-1 2
