%chk=JID_10920.chk
%mem=8GB
%nprocshared=4
# opt freq B3LYP/6-31G(d) empiricaldispersion=gd3bj scf=xqc

CID_43769015_JID_10920_neutraal

0 1
C          0.92023       -0.03407       -0.04976
C          0.38029       -1.00756        0.99941
C          1.01716       -0.74314        2.36627
C         -1.13730       -0.97685        1.07863
C         -1.83898        0.19425        1.43547
C         -3.23635        0.22291        1.53848
C         -3.92086       -0.98043        1.31203
C         -3.24969       -2.14884        0.94625
C         -1.86390       -2.14615        0.82751
N         -3.96787        1.31045        2.00536
C         -3.47128        2.68175        2.01727
C         -3.84290        3.55408        0.86287
C         -4.55490        3.25684       -0.28372
N         -4.66891        4.41959       -0.99902
N         -4.04744        5.45522       -0.39087
C         -3.55087        4.92805        0.72702
C         -5.39133        4.66165       -2.26211
C         -6.54534        5.65173       -2.00626
C         -4.42638        5.25928       -3.30535
C         -5.99303        3.37129       -2.85663
H          0.70989        1.00868        0.21170
H          0.47241       -0.22853       -1.03068
H          2.00599       -0.13867       -0.15015
H          0.69191       -2.01397        0.68910
H          0.80055        0.26688        2.73085
H          0.64852       -1.45406        3.11414
H          2.10596       -0.84999        2.31085
H         -1.25847        1.08417        1.65285
H         -5.00065       -1.02174        1.43286
H         -3.80898       -3.06437        0.77472
H         -1.35446       -3.06833        0.55815
H         -4.95031        1.26763        1.75413
H         -3.90592        3.14869        2.91145
H         -2.39012        2.73355        2.17863
H         -4.98389        2.32482       -0.62235
H         -3.00432        5.57016        1.40634
H         -6.17773        6.62050       -1.64860
H         -7.11914        5.83749       -2.92141
H         -7.23701        5.26450       -1.24884
H         -3.57721        4.59000       -3.48578
H         -4.93258        5.42648       -4.26306
H         -4.02089        6.22401       -2.97928
H         -5.21661        2.62665       -3.06635
H         -6.72203        2.91668       -2.17584
H         -6.51373        3.57704       -3.79935

--Link1--
%chk=JID_10920.chk
%mem=8GB
%nprocshared=4
# B3LYP/6-311++G(d,p) empiricaldispersion=gd3bj scf=xqc pop=npa geom=check

CID_43769015_JID_10920_Energie_neutraal

0 1

--Link1--
%chk=JID_10920.chk
%mem=8GB
%nprocshared=4
# B3LYP/6-311++G(d,p) empiricaldispersion=gd3bj scf=xqc pop=npa geom=check

CID_43769015_JID_10920_Energie_kation

1 2

--Link1--
%chk=JID_10920.chk
%mem=8GB
%nprocshared=4
# B3LYP/6-311++G(d,p) empiricaldispersion=gd3bj scf=xqc pop=npa geom=check

CID_43769015_JID_10920_Energie_anion

-1 2
