%chk=JID_10624.chk
%mem=8GB
%nprocshared=4
# opt freq B3LYP/6-31G(d) empiricaldispersion=gd3bj scf=xqc

CID_12439030_JID_10624_neutraal

0 1
C          1.06374        0.04463       -0.06282
C          0.63545       -0.39425       -1.41457
N          0.42538       -1.65782       -1.73734
C          0.13222       -1.66045       -3.06923
C          0.14346       -0.38245       -3.57317
N          0.49846        0.43727       -2.51958
C          0.64010        1.85544       -2.62979
C          0.99142        2.47899       -3.82007
C          1.38175        1.86979       -5.09211
N          0.85249        0.79553       -5.57685
C         -0.25438        0.14510       -4.89667
C          2.49913        2.47709       -5.88377
C          2.38106        2.55376       -7.27714
C          3.41730        3.09819       -8.03719
C          4.57683        3.55455       -7.41025
C          4.70760        3.46047       -6.02446
C          3.67396        2.91650       -5.25951
S          0.94453        4.18953       -3.65654
C          0.58477        4.09290       -1.99319
C          0.45154        2.79034       -1.56717
H          1.39636       -0.81807        0.52447
H          0.23110        0.50544        0.47593
H          1.90265        0.74471       -0.11248
H         -0.10903       -2.57798       -3.59087
H         -1.11398        0.82197       -4.81045
H         -0.59560       -0.68347       -5.52875
H          1.48392        2.18893       -7.77198
H          3.32245        3.16006       -9.11838
H          5.38478        3.97490       -8.00438
H          5.61897        3.80363       -5.54098
H          3.80218        2.82767       -4.18405
H          0.46592        4.99566       -1.40882
H          0.17264        2.55358       -0.54914

--Link1--
%chk=JID_10624.chk
%mem=8GB
%nprocshared=4
# B3LYP/6-311++G(d,p) empiricaldispersion=gd3bj scf=xqc pop=npa geom=check

CID_12439030_JID_10624_Energie_neutraal

0 1

--Link1--
%chk=JID_10624.chk
%mem=8GB
%nprocshared=4
# B3LYP/6-311++G(d,p) empiricaldispersion=gd3bj scf=xqc pop=npa geom=check

CID_12439030_JID_10624_Energie_kation

1 2

--Link1--
%chk=JID_10624.chk
%mem=8GB
%nprocshared=4
# B3LYP/6-311++G(d,p) empiricaldispersion=gd3bj scf=xqc pop=npa geom=check

CID_12439030_JID_10624_Energie_anion

-1 2
