%chk=JID_8786.chk
%mem=8GB
%nprocshared=4
# opt freq B3LYP/6-31G(d) empiricaldispersion=gd3bj scf=xqc

CID_69299673_JID_8786_neutraal

0 1
C          1.04571        0.06043        0.06526
N          0.99386        1.46977       -0.29269
C         -0.37444        1.96914       -0.32983
C          1.92177        2.32570        0.45481
C          1.54219        2.83352        1.85617
C          1.42048        1.79266        2.97039
N          2.68748        1.11109        3.24345
C          2.54675        0.08190        4.27983
C          2.07134       -1.28573        3.73363
C          3.14896       -2.01419        2.90500
C          4.27368       -2.60709        3.75816
C          3.71765       -3.50383        4.86663
C          2.69382       -2.76203        5.72833
C          1.56782       -2.19356        4.87001
C          4.82288       -4.09364        5.72023
O          5.04685       -5.29445        5.79935
O          5.51037       -3.12632        6.38615
C          6.53960       -3.63001        7.23866
H          0.54552       -0.53887       -0.70423
H          0.55614       -0.15776        1.01596
H          2.07908       -0.29965        0.11167
H         -0.86978        1.90287        0.64492
H         -0.39980        3.01229       -0.66353
H         -0.97066        1.39675       -1.04955
H          2.91229        1.85500        0.48523
H          2.07418        3.22079       -0.16439
H          2.29769        3.57263        2.15654
H          0.60089        3.39411        1.79915
H          1.10780        2.32207        3.87932
H          0.62140        1.08581        2.73555
H          3.06193        0.70376        2.38960
H          3.52416       -0.03161        4.76080
H          1.87169        0.43766        5.06817
H          1.21136       -1.10809        3.07699
H          2.66673       -2.83247        2.35396
H          3.57914       -1.35235        2.14602
H          4.88166       -1.79991        4.18383
H          4.94912       -3.18708        3.11707
H          3.21013       -4.35537        4.39182
H          3.17424       -1.95165        6.29001
H          2.27286       -3.44493        6.47640
H          0.85810       -1.64988        5.50460
H          1.00746       -3.02849        4.42891
H          6.10793       -4.25011        8.03078
H          7.27723       -4.19603        6.66118
H          7.04314       -2.77754        7.70261

--Link1--
%chk=JID_8786.chk
%mem=8GB
%nprocshared=4
# B3LYP/6-311++G(d,p) empiricaldispersion=gd3bj scf=xqc pop=npa geom=check

CID_69299673_JID_8786_Energie_neutraal

0 1

--Link1--
%chk=JID_8786.chk
%mem=8GB
%nprocshared=4
# B3LYP/6-311++G(d,p) empiricaldispersion=gd3bj scf=xqc pop=npa geom=check

CID_69299673_JID_8786_Energie_kation

1 2

--Link1--
%chk=JID_8786.chk
%mem=8GB
%nprocshared=4
# B3LYP/6-311++G(d,p) empiricaldispersion=gd3bj scf=xqc pop=npa geom=check

CID_69299673_JID_8786_Energie_anion

-1 2
