%chk=JID_5774.chk
%mem=8GB
%nprocshared=4
# opt freq B3LYP/6-31G(d) empiricaldispersion=gd3bj scf=xqc

CID_130021443_JID_5774_neutraal

0 1
C          0.95860        0.08592       -0.03005
O          1.44175        0.16314       -1.37738
C          0.65107        0.99036       -2.14032
C         -0.12113        0.44859       -3.18291
C         -0.93619        1.32668       -3.92490
C         -0.95966        2.69837       -3.65451
C         -0.14682        3.22592       -2.65594
C          0.66954        2.37477       -1.92406
O          1.52570        2.94150       -1.02146
C         -0.12053       -1.02723       -3.54710
C         -0.85748       -1.88582       -2.48891
O         -0.86818       -3.27691       -2.84878
C          0.47201       -3.75523       -3.01840
C          1.20873       -2.95851       -4.10370
N          1.25269       -1.51490       -3.82254
H          1.25796       -0.88649        0.37276
H         -0.13385        0.15599        0.03113
H          1.42207        0.86015        0.58798
H         -1.55576        0.94595       -4.73539
H         -1.59219        3.35759       -4.24373
H         -0.12893        4.29529       -2.46813
H          2.23870        2.28968       -0.89207
H         -0.66729       -1.14659       -4.49305
H         -0.41203       -1.79746       -1.49356
H         -1.90145       -1.56380       -2.40429
H          0.41310       -4.80932       -3.30739
H          0.99942       -3.70104       -2.05844
H          0.71055       -3.10835       -5.06913
H          2.23240       -3.33333       -4.20684
H          1.80322       -1.35272       -2.97647

--Link1--
%chk=JID_5774.chk
%mem=8GB
%nprocshared=4
# B3LYP/6-311++G(d,p) empiricaldispersion=gd3bj scf=xqc pop=npa geom=check

CID_130021443_JID_5774_Energie_neutraal

0 1

--Link1--
%chk=JID_5774.chk
%mem=8GB
%nprocshared=4
# B3LYP/6-311++G(d,p) empiricaldispersion=gd3bj scf=xqc pop=npa geom=check

CID_130021443_JID_5774_Energie_kation

1 2

--Link1--
%chk=JID_5774.chk
%mem=8GB
%nprocshared=4
# B3LYP/6-311++G(d,p) empiricaldispersion=gd3bj scf=xqc pop=npa geom=check

CID_130021443_JID_5774_Energie_anion

-1 2
