%chk=JID_7082.chk
%mem=8GB
%nprocshared=4
# opt freq B3LYP/6-31G(d) empiricaldispersion=gd3bj scf=xqc

CID_80633062_JID_7082_neutraal

0 1
C          1.04309        0.06989       -0.05708
C          0.96243        0.95413       -1.29200
C          1.32216        0.23428       -2.59670
N          0.29047       -0.73573       -2.98678
C         -0.81994       -0.24226       -3.80053
C         -0.47203       -0.16646       -5.29149
C         -0.33877       -1.51889       -5.97347
C          0.49531       -2.07113       -2.68088
N          1.68711       -2.43128       -2.15207
C          1.92069       -3.72833       -1.84458
C          1.00770       -4.75048       -2.03281
C         -0.22424       -4.38860       -2.56149
C         -0.47684       -3.05124       -2.88230
C          1.33602       -6.17718       -1.68802
C          1.52499       -7.08538       -2.92149
C          2.74835       -6.69491       -3.75313
N          1.66504       -8.48126       -2.48412
H          2.03150       -0.39125        0.03339
H          0.28851       -0.72160       -0.08098
H          0.86633        0.66704        0.84338
H         -0.04273        1.38619       -1.35822
H          1.65782        1.79177       -1.15909
H          1.40559        0.99694       -3.38161
H          2.32620       -0.20134       -2.53007
H         -1.74462       -0.80675       -3.64644
H         -1.06622        0.77509       -3.46911
H         -1.26806        0.39247       -5.79861
H          0.45317        0.40116       -5.44228
H         -1.23862       -2.12456       -5.82910
H         -0.19598       -1.38183       -7.05038
H          0.52470       -2.07458       -5.59729
H          2.90728       -3.91787       -1.43100
H         -0.99877       -5.13316       -2.72639
H         -1.45232       -2.80976       -3.28330
H          2.23449       -6.21021       -1.05692
H          0.52056       -6.56551       -1.06221
H          0.63575       -7.02718       -3.56017
H          3.66461       -6.71210       -3.15248
H          2.88467       -7.38224       -4.59584
H          2.63692       -5.68996       -4.17277
H          1.77776       -9.08250       -3.30050
H          2.52112       -8.58921       -1.94020

--Link1--
%chk=JID_7082.chk
%mem=8GB
%nprocshared=4
# B3LYP/6-311++G(d,p) empiricaldispersion=gd3bj scf=xqc pop=npa geom=check

CID_80633062_JID_7082_Energie_neutraal

0 1

--Link1--
%chk=JID_7082.chk
%mem=8GB
%nprocshared=4
# B3LYP/6-311++G(d,p) empiricaldispersion=gd3bj scf=xqc pop=npa geom=check

CID_80633062_JID_7082_Energie_kation

1 2

--Link1--
%chk=JID_7082.chk
%mem=8GB
%nprocshared=4
# B3LYP/6-311++G(d,p) empiricaldispersion=gd3bj scf=xqc pop=npa geom=check

CID_80633062_JID_7082_Energie_anion

-1 2
