%chk=JID_5380.chk
%mem=8GB
%nprocshared=4
# opt freq B3LYP/6-31G(d) empiricaldispersion=gd3bj scf=xqc

CID_115920606_JID_5380_neutraal

0 1
C          1.08911       -0.01902       -0.04121
C          0.63494       -1.44781        0.28983
C          1.08631       -1.87551        1.71003
C          0.42702       -1.32253        2.98466
C         -0.08221        0.11254        2.99640
C         -0.84831        0.17872        4.31075
C         -1.54305       -1.17594        4.41753
C         -0.77536       -2.12657        3.49459
N         -0.80644       -1.56144        0.02326
C         -1.28514       -2.79805       -0.63848
C         -0.72199       -4.09209       -0.01788
C         -2.81754       -2.83059       -0.44153
C         -0.94698       -2.78750       -2.15901
C         -1.59010       -1.67090       -2.98559
O         -1.22007       -0.38193       -2.52450
H          0.47617        0.74808        0.43730
H          1.03927        0.15814       -1.12126
H          2.12979        0.14255        0.25983
H          1.19401       -2.08009       -0.41077
H          1.05833       -2.97023        1.77327
H          2.15616       -1.63026        1.78080
H          1.19395       -1.39953        3.77154
H          0.72817        0.84617        2.95959
H         -0.77851        0.31128        2.17691
H         -1.55741        1.01133        4.33805
H         -0.14966        0.30529        5.14653
H         -2.58618       -1.10059        4.09012
H         -1.54924       -1.53382        5.45227
H         -1.43199       -2.45409        2.68477
H         -0.45241       -3.02601        4.02997
H         -1.32122       -1.41180        0.88982
H         -0.91582       -4.14109        1.05852
H         -1.19285       -4.97489       -0.46721
H          0.35605       -4.19332       -0.17892
H         -3.29652       -1.90305       -0.77470
H         -3.26921       -3.65773       -1.00127
H         -3.08007       -2.96535        0.61490
H          0.14106       -2.72501       -2.28638
H         -1.25172       -3.74504       -2.60171
H         -1.26930       -1.75454       -4.02898
H         -2.68143       -1.74333       -2.97756
H         -1.15879       -0.44953       -1.54707

--Link1--
%chk=JID_5380.chk
%mem=8GB
%nprocshared=4
# B3LYP/6-311++G(d,p) empiricaldispersion=gd3bj scf=xqc pop=npa geom=check

CID_115920606_JID_5380_Energie_neutraal

0 1

--Link1--
%chk=JID_5380.chk
%mem=8GB
%nprocshared=4
# B3LYP/6-311++G(d,p) empiricaldispersion=gd3bj scf=xqc pop=npa geom=check

CID_115920606_JID_5380_Energie_kation

1 2

--Link1--
%chk=JID_5380.chk
%mem=8GB
%nprocshared=4
# B3LYP/6-311++G(d,p) empiricaldispersion=gd3bj scf=xqc pop=npa geom=check

CID_115920606_JID_5380_Energie_anion

-1 2
