%chk=JID_6538.chk
%mem=8GB
%nprocshared=4
# opt freq B3LYP/6-31G(d) empiricaldispersion=gd3bj scf=xqc

CID_80238409_JID_6538_neutraal

0 1
C         -2.13100       -0.04600       -0.06100
N         -0.68883       -0.02060       -0.03796
C          0.15298       -1.08121       -0.17204
C          1.43966       -0.57720       -0.07936
C          1.24572        0.82386        0.09618
N         -0.05518        1.14494        0.14985
C          2.28232        1.84649        0.23570
C          3.59794        1.82813       -0.16763
O          4.21393        2.99830        0.15392
C          3.27934        3.78193        0.75173
C          2.07363        3.12445        0.81977
C          2.69859       -1.37045       -0.11909
N          3.20319       -1.36938       -1.49063
C          4.43736       -2.14421       -1.63226
C          4.37501       -3.61085       -1.95196
C          4.83377       -2.63444       -2.99647
H         -2.49805        0.32703        0.89843
H         -2.47387        0.59232       -0.87914
H         -2.47453       -1.07129       -0.21889
H         -0.21372       -2.08910       -0.30729
H          4.21996        1.10882       -0.68053
H          3.61777        4.76077        1.06065
H          1.15358        3.51020        1.23615
H          3.43699       -0.95200        0.57361
H          2.49687       -2.39798        0.20877
H          2.47098       -1.71548       -2.10989
H          5.25831       -1.81093       -0.99881
H          5.11936       -4.25753       -1.50146
H          3.40735       -4.07875       -2.08697
H          4.17622       -2.43241       -3.83368
H          5.88743       -2.61624       -3.25085

--Link1--
%chk=JID_6538.chk
%mem=8GB
%nprocshared=4
# B3LYP/6-311++G(d,p) empiricaldispersion=gd3bj scf=xqc pop=npa geom=check

CID_80238409_JID_6538_Energie_neutraal

0 1

--Link1--
%chk=JID_6538.chk
%mem=8GB
%nprocshared=4
# B3LYP/6-311++G(d,p) empiricaldispersion=gd3bj scf=xqc pop=npa geom=check

CID_80238409_JID_6538_Energie_kation

1 2

--Link1--
%chk=JID_6538.chk
%mem=8GB
%nprocshared=4
# B3LYP/6-311++G(d,p) empiricaldispersion=gd3bj scf=xqc pop=npa geom=check

CID_80238409_JID_6538_Energie_anion

-1 2
