%chk=JID_8932.chk
%mem=8GB
%nprocshared=4
# opt freq B3LYP/6-31G(d) empiricaldispersion=gd3bj scf=xqc

CID_84187471_JID_8932_neutraal

0 1
C          0.92864        0.02056        0.06697
C          0.51847        1.06908        1.09643
C          1.19831        2.40970        0.83783
S         -1.30960        1.23583        1.25508
C         -1.79768        1.61609       -0.41513
C         -1.76095        2.92938       -0.88849
C         -2.14995        3.22008       -2.20050
C         -2.58714        2.20093       -3.05278
C         -2.66999        0.89341       -2.55844
C         -2.27713        0.60227       -1.24842
C         -3.01321        2.47310       -4.41363
C         -2.33160        3.17639       -5.39911
N         -3.18916        3.12852       -6.48178
C         -4.28861        2.40185       -6.13267
N         -4.20707        1.98025       -4.89583
C         -2.97721        3.71769       -7.78223
C         -1.03340        3.80577       -5.39374
O         -0.23964        3.83497       -4.45815
H          0.70554        0.33598       -0.95726
H          0.43380       -0.93866        0.25330
H          2.00918       -0.15509        0.11931
H          0.85288        0.71580        2.07904
H          0.99313        2.79124       -0.16687
H          0.88915        3.16457        1.56881
H          2.28571        2.30167        0.92207
H         -1.42756        3.73936       -0.24494
H         -2.10745        4.24980       -2.54547
H         -3.04579        0.09496       -3.19494
H         -2.34962       -0.42076       -0.88823
H         -5.11198        2.20568       -6.80800
H         -2.82503        4.79252       -7.65584
H         -2.09790        3.25145       -8.23370
H         -3.85289        3.54288       -8.41270
H         -0.74492        4.30019       -6.33639

--Link1--
%chk=JID_8932.chk
%mem=8GB
%nprocshared=4
# B3LYP/6-311++G(d,p) empiricaldispersion=gd3bj scf=xqc pop=npa geom=check

CID_84187471_JID_8932_Energie_neutraal

0 1

--Link1--
%chk=JID_8932.chk
%mem=8GB
%nprocshared=4
# B3LYP/6-311++G(d,p) empiricaldispersion=gd3bj scf=xqc pop=npa geom=check

CID_84187471_JID_8932_Energie_kation

1 2

--Link1--
%chk=JID_8932.chk
%mem=8GB
%nprocshared=4
# B3LYP/6-311++G(d,p) empiricaldispersion=gd3bj scf=xqc pop=npa geom=check

CID_84187471_JID_8932_Energie_anion

-1 2
