%chk=JID_5039.chk
%mem=8GB
%nprocshared=4
# opt freq B3LYP/6-31G(d) empiricaldispersion=gd3bj scf=xqc

CID_17851278_JID_5039_neutraal

0 1
C          1.03962        0.08904       -0.02240
N          1.10343        1.01297       -1.13842
C         -0.06376        1.35001       -1.83283
C         -0.05568        2.50359       -2.64202
C         -1.15828        2.89398       -3.42427
C         -2.28723        2.05964       -3.39913
C         -2.30350        0.88872       -2.63901
C         -1.19477        0.53380       -1.87271
N         -1.15198        4.11115       -4.21568
C         -2.34837        4.77559       -4.50497
C         -2.39915        5.89604       -5.23500
C         -1.19474        6.46975       -5.75831
C         -0.01811        5.88863       -5.51001
C          0.07001        4.63104       -4.70927
O          1.19418        4.14734       -4.58480
H          0.77557       -0.92056       -0.35255
H          0.32634        0.42825        0.73601
H          2.02556        0.02720        0.44942
H          1.68805        1.82522       -0.95535
H          0.83768        3.12079       -2.61529
H         -3.15808        2.26406       -4.01416
H         -3.17496        0.23955       -2.66062
H         -1.23259       -0.39788       -1.31748
H         -3.26538        4.38216       -4.08117
H         -3.34174        6.39849       -5.42667
H         -1.25898        7.37894       -6.34639
H          0.91789        6.28454       -5.88315

--Link1--
%chk=JID_5039.chk
%mem=8GB
%nprocshared=4
# B3LYP/6-311++G(d,p) empiricaldispersion=gd3bj scf=xqc pop=npa geom=check

CID_17851278_JID_5039_Energie_neutraal

0 1

--Link1--
%chk=JID_5039.chk
%mem=8GB
%nprocshared=4
# B3LYP/6-311++G(d,p) empiricaldispersion=gd3bj scf=xqc pop=npa geom=check

CID_17851278_JID_5039_Energie_kation

1 2

--Link1--
%chk=JID_5039.chk
%mem=8GB
%nprocshared=4
# B3LYP/6-311++G(d,p) empiricaldispersion=gd3bj scf=xqc pop=npa geom=check

CID_17851278_JID_5039_Energie_anion

-1 2
