%chk=JID_10771.chk
%mem=8GB
%nprocshared=4
# opt freq B3LYP/6-31G(d) empiricaldispersion=gd3bj scf=xqc

CID_128415194_JID_10771_neutraal

0 1
C          2.05500       -0.32800       -0.10300
C          1.19361        0.88840       -0.55432
C         -0.00589        0.05520       -0.17113
C          0.85955       -0.76968        0.77231
C         -1.15149        0.81113        0.48492
C         -2.07448       -0.26860       -0.10214
N         -0.97788       -0.56033       -1.02593
C         -1.09680       -1.10085       -2.28458
O         -2.18729       -1.47796       -2.70726
C          0.16774       -1.22889       -3.17682
O          1.20172       -0.62450       -2.93532
N          0.16055       -2.02414       -4.29968
C         -0.90003       -2.84941       -4.86531
C         -0.60512       -3.14193       -6.34748
C          0.55007       -4.12590       -6.53873
C          0.31549       -5.37942       -5.73064
C          0.07602       -5.12029       -4.26130
C         -1.09037       -4.15059       -4.07204
C         -0.40710       -6.53378       -6.38850
C          1.06888       -6.63043       -6.11874
H          2.96943       -0.07332        0.44036
H          2.31053       -1.05388       -0.87960
H          1.34751        1.76978        0.08266
H          1.28728        1.22317       -1.58726
H          0.67342       -1.84538        0.80981
H          0.91703       -0.38287        1.79773
H         -1.14863        0.88588        1.57575
H         -1.33375        1.80968        0.06723
H         -2.98736        0.10107       -0.57347
H         -2.29559       -1.10978        0.56261
H          1.06767       -2.03796       -4.74838
H         -1.82362       -2.26478       -4.83185
H         -1.50834       -3.56280       -6.80708
H         -0.37929       -2.21000       -6.88027
H          1.49681       -3.66911       -6.22643
H          0.65319       -4.35528       -7.60625
H          0.98776       -4.70574       -3.81405
H         -0.14138       -6.05244       -3.72601
H         -1.21440       -3.94660       -3.00304
H         -2.01409       -4.63480       -4.41374
H         -1.07482       -7.14038       -5.78651
H         -0.72831       -6.42790       -7.41905
H          1.74351       -6.58983       -6.96697
H          1.39714       -7.30457       -5.33499

--Link1--
%chk=JID_10771.chk
%mem=8GB
%nprocshared=4
# B3LYP/6-311++G(d,p) empiricaldispersion=gd3bj scf=xqc pop=npa geom=check

CID_128415194_JID_10771_Energie_neutraal

0 1

--Link1--
%chk=JID_10771.chk
%mem=8GB
%nprocshared=4
# B3LYP/6-311++G(d,p) empiricaldispersion=gd3bj scf=xqc pop=npa geom=check

CID_128415194_JID_10771_Energie_kation

1 2

--Link1--
%chk=JID_10771.chk
%mem=8GB
%nprocshared=4
# B3LYP/6-311++G(d,p) empiricaldispersion=gd3bj scf=xqc pop=npa geom=check

CID_128415194_JID_10771_Energie_anion

-1 2
