%chk=JID_6242.chk
%mem=8GB
%nprocshared=4
# opt freq B3LYP/6-31G(d) empiricaldispersion=gd3bj scf=xqc

CID_145341918_JID_6242_neutraal

0 1
C          0.93806        0.02987        0.07260
C          0.21466       -1.25133        0.42046
C          2.69058        3.05118       -1.35128
C          1.78370        3.66604       -2.40557
C          1.99376        3.06422       -3.79839
N          1.31153        1.78666       -3.97356
C         -0.02217        1.77809       -4.31175
N         -0.73078        0.72176       -4.52458
C         -0.09290       -0.52016       -4.40232
C         -0.82892       -1.68155       -4.64932
C         -0.23236       -2.94039       -4.53609
C          1.10937       -3.04783       -4.17031
C          1.85652       -1.89622       -3.92350
C          1.25096       -0.63988       -4.04504
C          2.01694        0.60156       -3.81383
O          3.20459        0.54058       -3.50775
H          0.88594        0.74076        0.90242
H          0.48712        0.49514       -0.80896
H          1.99102       -0.17384       -0.14314
H          0.66154       -1.71691        1.30397
H         -0.84003       -1.05209        0.63216
H          0.27139       -1.96191       -0.40963
H          2.52026        1.97775       -1.25310
H          2.50356        3.51267       -0.37644
H          3.74432        3.20834       -1.60264
H          0.73787        3.56282       -2.09383
H          2.00116        4.73966       -2.45214
H          1.58254        3.76054       -4.53960
H          3.06237        2.95532       -4.01493
H         -0.48184        2.77599       -4.39749
H         -1.87483       -1.60076       -4.93490
H         -0.81690       -3.83558       -4.73457
H          1.57304       -4.02736       -4.08139
H          2.90401       -1.97652       -3.64268

--Link1--
%chk=JID_6242.chk
%mem=8GB
%nprocshared=4
# B3LYP/6-311++G(d,p) empiricaldispersion=gd3bj scf=xqc pop=npa geom=check

CID_145341918_JID_6242_Energie_neutraal

0 1

--Link1--
%chk=JID_6242.chk
%mem=8GB
%nprocshared=4
# B3LYP/6-311++G(d,p) empiricaldispersion=gd3bj scf=xqc pop=npa geom=check

CID_145341918_JID_6242_Energie_kation

1 2

--Link1--
%chk=JID_6242.chk
%mem=8GB
%nprocshared=4
# B3LYP/6-311++G(d,p) empiricaldispersion=gd3bj scf=xqc pop=npa geom=check

CID_145341918_JID_6242_Energie_anion

-1 2
