%chk=JID_9353.chk
%mem=8GB
%nprocshared=4
# opt freq B3LYP/6-31G(d) empiricaldispersion=gd3bj scf=xqc

CID_80193848_JID_9353_neutraal

0 1
C          2.49200        0.00400       -0.01400
C          1.29009        0.74681        0.51577
C          0.34300        0.08498        1.34225
C         -0.73849        0.81323        1.87860
C         -0.90770        2.16728        1.60722
C          0.01439        2.82813        0.80653
C          1.11007        2.13302        0.27262
S          2.26372        3.08980       -0.70640
O          2.25155        2.54626       -2.04695
O          2.01132        4.49871       -0.47535
N          3.75735        2.73957        0.00512
C          3.99185        3.20666        1.38168
C          5.46441        2.88452        1.57775
C          6.10670        3.23340        0.22305
C          4.95633        3.07680       -0.79974
C          6.63167        4.67626        0.22710
C          7.26138        2.27561       -0.09046
C          0.44516       -1.37858        1.71955
N          1.37700       -1.58031        2.82111
H          3.32907        0.09781        0.68430
H          2.28963       -1.05957       -0.15988
H          2.79878        0.35721       -1.00014
H         -1.45843        0.31652        2.52776
H         -1.75246        2.70615        2.02850
H         -0.12509        3.88886        0.60716
H          3.81415        4.28316        1.47184
H          3.37384        2.66863        2.10467
H          5.57076        1.81325        1.79278
H          5.89556        3.43464        2.42019
H          4.79587        4.00099       -1.36633
H          5.14338        2.26271       -1.50805
H          5.83635        5.39386        0.45582
H          7.42157        4.80492        0.97559
H          7.05092        4.94361       -0.74944
H          8.04928        2.34553        0.66738
H          6.91776        1.23508       -0.11809
H          7.70753        2.50199       -1.06516
H         -0.53996       -1.75339        2.02301
H          0.72557       -1.98727        0.85449
H          1.46425       -2.57800        3.00341
H          2.30077       -1.25726        2.54245

--Link1--
%chk=JID_9353.chk
%mem=8GB
%nprocshared=4
# B3LYP/6-311++G(d,p) empiricaldispersion=gd3bj scf=xqc pop=npa geom=check

CID_80193848_JID_9353_Energie_neutraal

0 1

--Link1--
%chk=JID_9353.chk
%mem=8GB
%nprocshared=4
# B3LYP/6-311++G(d,p) empiricaldispersion=gd3bj scf=xqc pop=npa geom=check

CID_80193848_JID_9353_Energie_kation

1 2

--Link1--
%chk=JID_9353.chk
%mem=8GB
%nprocshared=4
# B3LYP/6-311++G(d,p) empiricaldispersion=gd3bj scf=xqc pop=npa geom=check

CID_80193848_JID_9353_Energie_anion

-1 2
