%chk=JID_5485.chk
%mem=8GB
%nprocshared=4
# opt freq B3LYP/6-31G(d) empiricaldispersion=gd3bj scf=xqc

CID_82609129_JID_5485_neutraal

0 1
C          1.05446        0.04938        0.06779
C          0.27587        1.25329        0.56932
C         -0.30966        2.08884       -0.53561
C          0.18954        3.38772       -0.45565
C         -0.18880        4.36711       -1.35329
C         -1.09971        4.01857       -2.35679
C         -1.61962        2.70774       -2.45095
C         -1.21808        1.73452       -1.51942
C         -2.61538        2.35412       -3.53435
N         -2.10749        1.27661       -4.38344
C         -3.04889        0.95951       -5.44670
N          1.07753        3.48023        0.61961
C          1.20602        2.25508        1.27915
O          1.91847        2.00938        2.24115
C          1.78865        4.67684        0.98027
H          0.40495       -0.64489       -0.47558
H          1.50689       -0.49423        0.90413
H          1.86592        0.34708       -0.60652
H         -0.51302        0.96111        1.27119
H          0.20028        5.37685       -1.29465
H         -1.40756        4.77865       -3.07224
H         -1.60924        0.72217       -1.57996
H         -3.55374        2.05534       -3.05080
H         -2.82949        3.24154       -4.14277
H         -1.21965        1.57068       -4.78930
H         -3.21791        1.81854       -6.10411
H         -2.64892        0.14321       -6.05610
H         -4.00876        0.62583       -5.03931
H          2.42800        4.98294        0.14699
H          1.07121        5.47027        1.20947
H          2.41457        4.50123        1.85966

--Link1--
%chk=JID_5485.chk
%mem=8GB
%nprocshared=4
# B3LYP/6-311++G(d,p) empiricaldispersion=gd3bj scf=xqc pop=npa geom=check

CID_82609129_JID_5485_Energie_neutraal

0 1

--Link1--
%chk=JID_5485.chk
%mem=8GB
%nprocshared=4
# B3LYP/6-311++G(d,p) empiricaldispersion=gd3bj scf=xqc pop=npa geom=check

CID_82609129_JID_5485_Energie_kation

1 2

--Link1--
%chk=JID_5485.chk
%mem=8GB
%nprocshared=4
# B3LYP/6-311++G(d,p) empiricaldispersion=gd3bj scf=xqc pop=npa geom=check

CID_82609129_JID_5485_Energie_anion

-1 2
