%chk=JID_10852.chk
%mem=8GB
%nprocshared=4
# opt freq B3LYP/6-31G(d) empiricaldispersion=gd3bj scf=xqc

CID_63667965_JID_10852_neutraal

0 1
C         -1.78400        1.90000       -0.02800
C         -0.70725        0.87795       -0.27368
C          0.31998        1.17163       -1.19025
C          1.35882        0.27058       -1.47255
C          1.31972       -0.97489       -0.83670
C          0.28206       -1.30003        0.05672
C         -0.73466       -0.38127        0.34746
C         -1.82571       -0.76323        1.30938
S          2.58424       -2.20535       -1.07232
O          1.95557       -3.50728       -0.97843
O          3.40126       -1.85110       -2.21596
N          3.52537       -2.04823        0.32702
C          4.14117       -0.79761        0.63382
C          3.76809       -0.06432        1.76487
C          4.39251        1.16785        1.94498
N          5.34320        1.67389        1.12930
C          5.69592        0.92142        0.06985
C          5.12880       -0.30520       -0.21728
C          2.70778       -0.48860        2.73258
N          2.22820        0.59650       -2.51746
H         -1.91158        2.07402        1.04510
H         -1.53334        2.86434       -0.48270
H         -2.73134        1.56043       -0.45828
H          0.29872        2.12564       -1.71589
H          0.26607       -2.28236        0.52685
H         -1.78489       -0.12754        2.19943
H         -2.80666       -0.66487        0.83374
H         -1.72528       -1.80284        1.63902
H          3.20344       -2.64528        1.08477
H          4.13700        1.81098        2.78423
H          6.47083        1.34236       -0.56433
H          5.46463       -0.86492       -1.08348
H          2.89470       -0.06293        3.72487
H          1.72734       -0.14454        2.39312
H          2.68442       -1.57424        2.86160
H          2.44589        1.58185       -2.61988
H          3.04404       -0.01179       -2.62457

--Link1--
%chk=JID_10852.chk
%mem=8GB
%nprocshared=4
# B3LYP/6-311++G(d,p) empiricaldispersion=gd3bj scf=xqc pop=npa geom=check

CID_63667965_JID_10852_Energie_neutraal

0 1

--Link1--
%chk=JID_10852.chk
%mem=8GB
%nprocshared=4
# B3LYP/6-311++G(d,p) empiricaldispersion=gd3bj scf=xqc pop=npa geom=check

CID_63667965_JID_10852_Energie_kation

1 2

--Link1--
%chk=JID_10852.chk
%mem=8GB
%nprocshared=4
# B3LYP/6-311++G(d,p) empiricaldispersion=gd3bj scf=xqc pop=npa geom=check

CID_63667965_JID_10852_Energie_anion

-1 2
