%chk=JID_9826.chk
%mem=8GB
%nprocshared=4
# opt freq B3LYP/6-31G(d) empiricaldispersion=gd3bj scf=xqc

CID_24870855_JID_9826_neutraal

0 1
C          2.49200        0.00400       -0.01400
C          0.99787        0.06959        0.08768
C          0.23665       -1.10488        0.06300
C         -1.15557       -1.04528        0.16129
C         -1.80412        0.19041        0.28270
C         -1.04383        1.35910        0.35494
C          0.34894        1.29861        0.25441
C         -3.29247        0.19457        0.36805
O         -3.82662       -0.72174        1.00517
C         -4.13737        1.29409       -0.29501
C         -4.45420        2.40258        0.64859
C         -4.27895        3.57886        0.04118
C         -3.82501        3.39992       -1.38334
N         -3.44963        1.95239       -1.42895
C         -3.77409        1.35068       -2.71398
C         -2.61975        4.25729       -1.73599
C         -3.17716        5.62777       -2.08666
O         -3.11201        6.49093       -1.16697
O         -3.62962        5.74034       -3.26130
H          2.92182       -0.26844        0.95480
H          2.79481       -0.73748       -0.76072
H          2.91124        0.96714       -0.32334
H          0.72139       -2.07239       -0.04046
H         -1.73698       -1.96398        0.13371
H         -1.51721        2.32899        0.48112
H          0.91720        2.22565        0.29615
H         -5.07863        0.83221       -0.62310
H         -4.81139        2.26530        1.65754
H         -4.46637        4.55282        0.47453
H         -4.68663        3.60222       -2.03458
H         -3.22739        1.84768       -3.52242
H         -3.47124        0.29797       -2.72951
H         -4.84476        1.40178       -2.94168
H         -1.89711        4.33082       -0.91515
H         -2.08505        3.86937       -2.61122

--Link1--
%chk=JID_9826.chk
%mem=8GB
%nprocshared=4
# B3LYP/6-311++G(d,p) empiricaldispersion=gd3bj scf=xqc pop=npa geom=check

CID_24870855_JID_9826_Energie_neutraal

0 1

--Link1--
%chk=JID_9826.chk
%mem=8GB
%nprocshared=4
# B3LYP/6-311++G(d,p) empiricaldispersion=gd3bj scf=xqc pop=npa geom=check

CID_24870855_JID_9826_Energie_kation

1 2

--Link1--
%chk=JID_9826.chk
%mem=8GB
%nprocshared=4
# B3LYP/6-311++G(d,p) empiricaldispersion=gd3bj scf=xqc pop=npa geom=check

CID_24870855_JID_9826_Energie_anion

-1 2
