%chk=JID_7818.chk
%mem=8GB
%nprocshared=4
# opt freq B3LYP/6-31G(d) empiricaldispersion=gd3bj scf=xqc

CID_21993556_JID_7818_neutraal

0 1
C          1.34400       -0.22500        0.03600
C          0.70004        0.19358        1.19669
C         -0.66278        0.50447        1.17137
C         -1.40529        0.42610       -0.02120
C         -0.73702       -0.02458       -1.17539
C          0.62450       -0.33853       -1.14951
C         -2.90853        0.70983       -0.04916
C         -3.43721        1.66347        1.03024
C         -4.34060        1.11191        1.96920
C         -4.85902        1.86549        3.02169
C         -4.48339        3.19176        3.16813
C         -3.60172        3.76375        2.25397
C         -3.07858        3.02750        1.16847
C         -2.15363        3.77099        0.22171
C         -2.90205        4.60751       -0.82077
O         -3.51464        5.75438       -0.24001
N         -3.39933        1.11382       -1.37355
H          2.40201       -0.47123        0.05765
H          1.25536        0.27212        2.12781
H         -1.13651        0.80966        2.10237
H         -1.28113       -0.14606       -2.11057
H          1.11809       -0.68049       -2.05539
H         -3.36115       -0.27562        0.12806
H         -4.64198        0.06785        1.89107
H         -5.54568        1.41053        3.73082
H         -4.87156        3.78224        3.99389
H         -3.31218        4.80520        2.39468
H         -1.50243        4.42425        0.81735
H         -1.48404        3.07749       -0.29090
H         -2.19076        4.97165       -1.56889
H         -3.67350        4.03314       -1.34242
H         -4.28655        5.43720        0.26152
H         -4.38246        1.36396       -1.28871
H         -2.90357        1.94875       -1.66554

--Link1--
%chk=JID_7818.chk
%mem=8GB
%nprocshared=4
# B3LYP/6-311++G(d,p) empiricaldispersion=gd3bj scf=xqc pop=npa geom=check

CID_21993556_JID_7818_Energie_neutraal

0 1

--Link1--
%chk=JID_7818.chk
%mem=8GB
%nprocshared=4
# B3LYP/6-311++G(d,p) empiricaldispersion=gd3bj scf=xqc pop=npa geom=check

CID_21993556_JID_7818_Energie_kation

1 2

--Link1--
%chk=JID_7818.chk
%mem=8GB
%nprocshared=4
# B3LYP/6-311++G(d,p) empiricaldispersion=gd3bj scf=xqc pop=npa geom=check

CID_21993556_JID_7818_Energie_anion

-1 2
