%chk=JID_2365.chk
%mem=8GB
%nprocshared=4
# opt freq B3LYP/6-31G(d) empiricaldispersion=gd3bj scf=xqc

CID_153952405_JID_2365_neutraal

0 1
C          2.43300        0.69700        0.03100
C          2.43282       -0.69756        0.07108
C          1.22423       -1.39528        0.08374
C          0.01701       -0.69799        0.05824
C          0.01747        0.69675       -0.00911
C          1.22476        1.39436       -0.00844
O         -1.12260        1.45216       -0.07885
C         -2.29079        0.68109       -0.38475
C         -2.29782       -0.68288        0.38873
O         -1.12410       -1.45367        0.10397
N         -2.45064       -0.54598        1.84423
N         -2.41711        0.54407       -1.84274
H          3.37422        1.24118        0.02540
H          3.37388       -1.24142        0.09738
H          1.22403       -2.48124        0.12494
H          1.22515        2.48031       -0.04970
H         -3.15163        1.26974       -0.04674
H         -3.15228       -1.27164        0.03510
H         -2.28258       -1.47021        2.23858
H         -1.67789        0.03118        2.17601
H         -2.24311        1.46848       -2.23405
H         -1.63786       -0.03222       -2.16046

--Link1--
%chk=JID_2365.chk
%mem=8GB
%nprocshared=4
# B3LYP/6-311++G(d,p) empiricaldispersion=gd3bj scf=xqc pop=npa geom=check

CID_153952405_JID_2365_Energie_neutraal

0 1

--Link1--
%chk=JID_2365.chk
%mem=8GB
%nprocshared=4
# B3LYP/6-311++G(d,p) empiricaldispersion=gd3bj scf=xqc pop=npa geom=check

CID_153952405_JID_2365_Energie_kation

1 2

--Link1--
%chk=JID_2365.chk
%mem=8GB
%nprocshared=4
# B3LYP/6-311++G(d,p) empiricaldispersion=gd3bj scf=xqc pop=npa geom=check

CID_153952405_JID_2365_Energie_anion

-1 2
