%chk=JID_5970.chk
%mem=8GB
%nprocshared=4
# opt freq B3LYP/6-31G(d) empiricaldispersion=gd3bj scf=xqc

CID_90401960_JID_5970_neutraal

0 1
C          1.03801       -0.09143        0.01399
C          0.67331        0.18989       -1.43613
C          1.11988       -0.91012       -2.40264
C          0.58787       -2.31456       -2.09689
C         -0.93947       -2.45570       -2.11292
C         -1.57103       -2.37566       -3.51383
C         -1.28644       -3.56060       -4.45684
O         -1.88480       -4.78767       -4.01668
C         -1.08891       -5.63623       -3.34086
O          0.08435       -5.49951       -3.04664
O         -1.78225       -6.73641       -3.01209
O         -2.99387       -2.09199       -3.47740
C         -3.82196       -2.84526       -2.73196
O         -3.56068       -3.74365       -1.95547
O         -5.08714       -2.45082       -2.94786
H          0.47110       -0.93759        0.41315
H          0.80794        0.78078        0.63442
H          2.10601       -0.30771        0.11683
H         -0.40640        0.35556       -1.51736
H          1.15195        1.12893       -1.73995
H          0.83886       -0.61912       -3.42108
H          2.21657       -0.95399       -2.39530
H          1.03440       -3.01277       -2.81269
H          0.95476       -2.62944       -1.11285
H         -1.18407       -3.41608       -1.64786
H         -1.39601       -1.70138       -1.46196
H         -1.15423       -1.48971       -4.00582
H         -1.74338       -3.34810       -5.43040
H         -0.21244       -3.68085       -4.63755
H         -1.13947       -7.26767       -2.50412
H         -5.60407       -3.05735       -2.38230

--Link1--
%chk=JID_5970.chk
%mem=8GB
%nprocshared=4
# B3LYP/6-311++G(d,p) empiricaldispersion=gd3bj scf=xqc pop=npa geom=check

CID_90401960_JID_5970_Energie_neutraal

0 1

--Link1--
%chk=JID_5970.chk
%mem=8GB
%nprocshared=4
# B3LYP/6-311++G(d,p) empiricaldispersion=gd3bj scf=xqc pop=npa geom=check

CID_90401960_JID_5970_Energie_kation

1 2

--Link1--
%chk=JID_5970.chk
%mem=8GB
%nprocshared=4
# B3LYP/6-311++G(d,p) empiricaldispersion=gd3bj scf=xqc pop=npa geom=check

CID_90401960_JID_5970_Energie_anion

-1 2
