%chk=JID_4126.chk
%mem=8GB
%nprocshared=4
# opt freq B3LYP/6-31G(d) empiricaldispersion=gd3bj scf=xqc

CID_87174201_JID_4126_neutraal

0 1
C          0.70300        1.24700       -0.25500
C         -0.29462        0.13740       -0.37258
C          0.47071       -1.10060       -0.68394
C         -0.58728       -0.61862       -1.65514
C         -0.28163       -0.01975       -2.97867
N         -0.78353        1.14530       -3.23938
C          0.52820       -0.75728       -3.97820
C          1.11638       -0.04444       -5.02968
C          1.90372       -0.70588       -5.97302
C          2.09979       -2.08258       -5.87386
C          1.50532       -2.80024       -4.83596
C          0.71786       -2.14102       -3.88885
C          1.91665       -0.72320       -0.73416
N          1.96441        0.53965        0.01818
H          0.45966        1.92432        0.56947
H          0.79094        1.83979       -1.16963
H         -1.01578        0.11347        0.43269
H          0.27840       -1.98694       -0.09434
H         -1.51408       -1.18810       -1.66320
H         -1.33281        1.48662       -2.44419
H          0.96906        1.03074       -5.10981
H          2.36341       -0.14470       -6.78251
H          2.71400       -2.59656       -6.60899
H          1.65435       -3.87486       -4.76605
H          0.25660       -2.72149       -3.09589
H          2.28018       -0.56987       -1.75341
H          2.54896       -1.47709       -0.25498
H          1.97963        0.30865        1.01099

--Link1--
%chk=JID_4126.chk
%mem=8GB
%nprocshared=4
# B3LYP/6-311++G(d,p) empiricaldispersion=gd3bj scf=xqc pop=npa geom=check

CID_87174201_JID_4126_Energie_neutraal

0 1

--Link1--
%chk=JID_4126.chk
%mem=8GB
%nprocshared=4
# B3LYP/6-311++G(d,p) empiricaldispersion=gd3bj scf=xqc pop=npa geom=check

CID_87174201_JID_4126_Energie_kation

1 2

--Link1--
%chk=JID_4126.chk
%mem=8GB
%nprocshared=4
# B3LYP/6-311++G(d,p) empiricaldispersion=gd3bj scf=xqc pop=npa geom=check

CID_87174201_JID_4126_Energie_anion

-1 2
