%chk=JID_10481.chk
%mem=8GB
%nprocshared=4
# opt freq B3LYP/6-31G(d) empiricaldispersion=gd3bj scf=xqc

CID_132381001_JID_10481_neutraal

0 1
C          1.04373       -0.05907        0.06781
C          0.87653        0.81093        1.30534
O          1.74217        1.94680        1.22451
C          3.01511        1.65580        1.66449
N          3.16538        1.10713        2.87714
C          4.43495        0.89244        3.23263
N          5.52180        1.13654        2.48392
C          5.32015        1.67250        1.26948
C          4.05392        1.99817        0.83381
N          6.39795        1.94469        0.42056
C          7.75091        1.57039        0.85487
C          8.27867        0.19068        0.32382
C          8.40177        0.22504       -1.21858
C          8.47222       -1.14945       -1.86987
O          7.41732       -1.98442       -1.41178
C          7.48982       -2.25080       -0.01670
C          7.36972       -0.96746        0.79314
C          9.69350        0.06914        0.94310
O         10.23930        0.97226        1.57510
N         10.41239       -1.06743        0.75071
H          0.89899        0.53356       -0.84151
H          0.32098       -0.88001        0.07284
H          2.05087       -0.48499        0.01708
H         -0.14840        1.19724        1.33051
H          1.01136        0.22732        2.22374
H          4.60610        0.47318        4.21796
H          3.87353        2.46570       -0.12318
H          6.18021        1.70164       -0.53831
H          8.41155        2.36028        0.47135
H          7.84334        1.63142        1.94739
H          7.52283        0.71882       -1.64605
H          9.27048        0.81870       -1.52834
H          8.35623       -1.04128       -2.95382
H          9.43488       -1.64302       -1.71163
H          8.39718       -2.81588        0.20880
H          6.65288       -2.91266        0.23316
H          7.52584       -1.18444        1.85649
H          6.32389       -0.66999        0.67929
H         10.13024       -1.87266        0.21920
H         11.33815       -1.08483        1.16257

--Link1--
%chk=JID_10481.chk
%mem=8GB
%nprocshared=4
# B3LYP/6-311++G(d,p) empiricaldispersion=gd3bj scf=xqc pop=npa geom=check

CID_132381001_JID_10481_Energie_neutraal

0 1

--Link1--
%chk=JID_10481.chk
%mem=8GB
%nprocshared=4
# B3LYP/6-311++G(d,p) empiricaldispersion=gd3bj scf=xqc pop=npa geom=check

CID_132381001_JID_10481_Energie_kation

1 2

--Link1--
%chk=JID_10481.chk
%mem=8GB
%nprocshared=4
# B3LYP/6-311++G(d,p) empiricaldispersion=gd3bj scf=xqc pop=npa geom=check

CID_132381001_JID_10481_Energie_anion

-1 2
