%chk=JID_1034.chk
%mem=8GB
%nprocshared=4
# opt freq B3LYP/6-31G(d) empiricaldispersion=gd3bj scf=xqc

CID_112756675_JID_1034_neutraal

0 1
C          0.94073        0.02107       -0.07774
C          1.07695        0.35076       -1.55348
O          1.50269       -0.77119       -2.32302
C          2.87380       -1.15606       -2.15777
C          3.05546       -2.52682       -2.82623
C          4.51816       -2.84720       -3.16914
C          4.85167       -2.50309       -4.62052
C          5.27882       -1.04174       -4.57526
C          5.21240       -0.66724       -3.09396
C          3.84176       -0.09418       -2.70242
N          5.41814       -1.95721       -2.41273
H          0.35763       -0.89460        0.06315
H          0.44856        0.84062        0.45433
H          1.91759       -0.14081        0.38709
H          0.09131        0.63333       -1.93867
H          1.73573        1.21045       -1.70960
H          3.07576       -1.29623       -1.08838
H          2.67645       -3.28480       -2.12724
H          2.41441       -2.61051       -3.71284
H          4.72593       -3.90292       -2.96546
H          4.01519       -2.66359       -5.30790
H          5.69083       -3.11504       -4.97395
H          4.64371       -0.41293       -5.20718
H          6.30675       -0.95295       -4.94740
H          5.99870        0.05298       -2.84401
H          3.38699        0.45053       -3.53871
H          3.99188        0.65285       -1.91156
H          6.38162       -2.26008       -2.56831

--Link1--
%chk=JID_1034.chk
%mem=8GB
%nprocshared=4
# B3LYP/6-311++G(d,p) empiricaldispersion=gd3bj scf=xqc pop=npa geom=check

CID_112756675_JID_1034_Energie_neutraal

0 1

--Link1--
%chk=JID_1034.chk
%mem=8GB
%nprocshared=4
# B3LYP/6-311++G(d,p) empiricaldispersion=gd3bj scf=xqc pop=npa geom=check

CID_112756675_JID_1034_Energie_kation

1 2

--Link1--
%chk=JID_1034.chk
%mem=8GB
%nprocshared=4
# B3LYP/6-311++G(d,p) empiricaldispersion=gd3bj scf=xqc pop=npa geom=check

CID_112756675_JID_1034_Energie_anion

-1 2
