%chk=JID_8438.chk
%mem=8GB
%nprocshared=4
# opt freq B3LYP/6-31G(d) empiricaldispersion=gd3bj scf=xqc

CID_136602400_JID_8438_neutraal

0 1
C          2.19200       -0.00900       -0.03500
N          0.75042       -0.02008        0.12713
C          0.02225       -1.17916        0.20735
C         -1.29838       -0.84199        0.36760
C         -1.39478        0.58216        0.39165
C         -0.09857        1.07343        0.19977
C          0.43476        2.39694        0.07045
C         -0.01909        3.16553       -0.93722
C          0.31818        4.59141       -1.12710
N         -0.08206        5.29999       -2.12772
C          1.42430        2.88129        1.07759
O          1.31809        2.72327        2.28300
O          2.50667        3.39419        0.43393
C          3.55951        3.81043        1.30482
C         -2.64175        1.32371        0.58674
O         -3.74004        0.77869        0.59707
O         -2.45756        2.66416        0.76013
C         -3.66282        3.39655        0.97959
H          2.64178        0.29748        0.91217
H          2.53585       -1.01334       -0.29720
H          2.45497        0.67926       -0.84180
H          0.49813       -2.15046        0.15524
H         -2.12114       -1.53904        0.47656
H         -0.73048        2.76634       -1.65352
H          0.92731        5.08333       -0.35362
H         -0.65019        4.74963       -2.77891
H          3.94347        2.95846        1.87452
H          4.37057        4.20742        0.68798
H          3.21229        4.60300        1.97459
H         -4.30681        3.34355        0.09627
H         -4.18631        3.02411        1.86578
H         -3.39616        4.44307        1.15105

--Link1--
%chk=JID_8438.chk
%mem=8GB
%nprocshared=4
# B3LYP/6-311++G(d,p) empiricaldispersion=gd3bj scf=xqc pop=npa geom=check

CID_136602400_JID_8438_Energie_neutraal

0 1

--Link1--
%chk=JID_8438.chk
%mem=8GB
%nprocshared=4
# B3LYP/6-311++G(d,p) empiricaldispersion=gd3bj scf=xqc pop=npa geom=check

CID_136602400_JID_8438_Energie_kation

1 2

--Link1--
%chk=JID_8438.chk
%mem=8GB
%nprocshared=4
# B3LYP/6-311++G(d,p) empiricaldispersion=gd3bj scf=xqc pop=npa geom=check

CID_136602400_JID_8438_Energie_anion

-1 2
