%chk=JID_3584.chk
%mem=8GB
%nprocshared=4
# opt freq B3LYP/6-31G(d) empiricaldispersion=gd3bj scf=xqc

CID_12868315_JID_3584_neutraal

0 1
C          0.70300        1.24700       -0.25500
C         -0.71997        1.15807        0.30039
C         -1.51183        0.03231       -0.36655
C         -0.75005       -1.30263       -0.28394
N          0.59198       -1.12188       -0.89773
C          1.41225       -0.10727       -0.21188
C          1.21152       -2.34272       -1.22546
C          2.39673       -2.79483       -0.64014
C          2.93216       -4.01340       -1.03789
N          2.38367       -4.80913       -1.97688
C          1.25010       -4.35803       -2.54766
C          0.64124       -3.15795       -2.21109
O         -1.72536        0.36471       -1.74368
H          1.27741        1.98370        0.31793
H          0.66854        1.60796       -1.29048
H         -0.67631        0.98323        1.38211
H         -1.22228        2.11873        0.13854
H         -2.49527       -0.06402        0.10454
H         -1.33412       -2.05913       -0.82063
H         -0.64796       -1.62502        0.75986
H          2.38394        0.00444       -0.70859
H          1.58984       -0.39668        0.83176
H          2.90991       -2.23475        0.13126
H          3.84792       -4.39029       -0.59145
H          0.82744       -5.00137       -3.31374
H         -0.25856       -2.85339       -2.73467
H         -0.89868        0.10591       -2.20043

--Link1--
%chk=JID_3584.chk
%mem=8GB
%nprocshared=4
# B3LYP/6-311++G(d,p) empiricaldispersion=gd3bj scf=xqc pop=npa geom=check

CID_12868315_JID_3584_Energie_neutraal

0 1

--Link1--
%chk=JID_3584.chk
%mem=8GB
%nprocshared=4
# B3LYP/6-311++G(d,p) empiricaldispersion=gd3bj scf=xqc pop=npa geom=check

CID_12868315_JID_3584_Energie_kation

1 2

--Link1--
%chk=JID_3584.chk
%mem=8GB
%nprocshared=4
# B3LYP/6-311++G(d,p) empiricaldispersion=gd3bj scf=xqc pop=npa geom=check

CID_12868315_JID_3584_Energie_anion

-1 2
