%chk=JID_6256.chk
%mem=8GB
%nprocshared=4
# opt freq B3LYP/6-31G(d) empiricaldispersion=gd3bj scf=xqc

CID_43388507_JID_6256_neutraal

0 1
C          1.01720       -0.06457        0.07439
C         -0.05942        0.34693       -0.92099
C          0.02902        1.81425       -1.35066
N          1.25572        2.08265       -2.09344
C          1.32723        3.48909       -2.52173
C          2.73210        3.79965       -3.05772
O          2.90150        4.06106       -4.25143
N          3.79844        3.75344       -2.15714
C          3.65655        3.93078       -0.69913
C          4.61124        3.02394        0.09241
C          5.96994        3.09660       -0.51804
C          6.21184        3.53193       -1.80638
C          5.12772        4.01349       -2.72667
C          7.60793        3.46620       -2.10967
C          8.35095        2.98663       -1.05162
S          7.37485        2.61632        0.30484
H          2.01443       -0.03764       -0.37478
H          0.83753       -1.08834        0.41821
H          1.01388        0.59204        0.95018
H         -0.00997       -0.30624       -1.80065
H         -1.04068        0.18026       -0.46035
H         -0.83886        2.04136       -1.98109
H         -0.02792        2.45468       -0.46214
H          2.07677        1.84744       -1.54022
H          0.61156        3.65985       -3.33429
H          1.08473        4.19456       -1.72042
H          3.87261        4.98706       -0.49182
H          2.63544        3.75048       -0.36001
H          4.62258        3.32881        1.14444
H          4.25509        1.98760        0.04302
H          5.21683        3.51784       -3.70009
H          5.21983        5.09542       -2.87851
H          8.04651        3.75374       -3.05795
H          9.42047        2.83305       -1.00875

--Link1--
%chk=JID_6256.chk
%mem=8GB
%nprocshared=4
# B3LYP/6-311++G(d,p) empiricaldispersion=gd3bj scf=xqc pop=npa geom=check

CID_43388507_JID_6256_Energie_neutraal

0 1

--Link1--
%chk=JID_6256.chk
%mem=8GB
%nprocshared=4
# B3LYP/6-311++G(d,p) empiricaldispersion=gd3bj scf=xqc pop=npa geom=check

CID_43388507_JID_6256_Energie_kation

1 2

--Link1--
%chk=JID_6256.chk
%mem=8GB
%nprocshared=4
# B3LYP/6-311++G(d,p) empiricaldispersion=gd3bj scf=xqc pop=npa geom=check

CID_43388507_JID_6256_Energie_anion

-1 2
