%chk=JID_10467.chk
%mem=8GB
%nprocshared=4
# opt freq B3LYP/6-31G(d) empiricaldispersion=gd3bj scf=xqc

CID_89560176_JID_10467_neutraal

0 1
C          2.49200        0.00400       -0.01400
C          1.07411       -0.41840        0.23290
C          0.53252       -1.51420       -0.45346
C         -0.78000       -1.96085       -0.20922
C         -1.54134       -1.27846        0.75026
C         -1.00574       -0.19209        1.44580
C          0.29725        0.23183        1.19420
C         -1.29833       -3.15533       -0.98676
C         -2.76279       -3.51368       -0.77051
O         -3.74600       -2.82120       -0.96765
C         -2.84552       -4.88792       -0.27962
C         -1.57750       -5.43382       -0.18902
C         -0.58349       -4.45302       -0.61881
O          0.60840       -4.69835       -0.68472
C         -1.37561       -6.73043        0.24677
C         -2.49751       -7.48867        0.60264
C         -3.78795       -6.92917        0.50950
C         -3.97095       -5.61346        0.06286
O         -2.20782       -8.75779        1.02299
C         -3.30158       -9.57912        1.41305
H          3.16869       -0.55899        0.63613
H          2.77494       -0.17069       -1.05738
H          2.62163        1.07355        0.18219
H          1.15103       -2.03703       -1.18372
H         -2.56588       -1.56660        0.97499
H         -1.60913        0.32567        2.18734
H          0.70137        1.07345        1.75171
H         -1.16919       -2.99129       -2.06417
H         -0.37451       -7.14713        0.31147
H         -4.67265       -7.49936        0.77890
H         -4.96264       -5.17671       -0.01264
H         -3.83251       -9.14874        2.26852
H         -3.98107       -9.75553        0.57279
H         -2.89806      -10.54748        1.72420

--Link1--
%chk=JID_10467.chk
%mem=8GB
%nprocshared=4
# B3LYP/6-311++G(d,p) empiricaldispersion=gd3bj scf=xqc pop=npa geom=check

CID_89560176_JID_10467_Energie_neutraal

0 1

--Link1--
%chk=JID_10467.chk
%mem=8GB
%nprocshared=4
# B3LYP/6-311++G(d,p) empiricaldispersion=gd3bj scf=xqc pop=npa geom=check

CID_89560176_JID_10467_Energie_kation

1 2

--Link1--
%chk=JID_10467.chk
%mem=8GB
%nprocshared=4
# B3LYP/6-311++G(d,p) empiricaldispersion=gd3bj scf=xqc pop=npa geom=check

CID_89560176_JID_10467_Energie_anion

-1 2
