%chk=JID_8610.chk
%mem=8GB
%nprocshared=4
# opt freq B3LYP/6-31G(d) empiricaldispersion=gd3bj scf=xqc

CID_138913060_JID_8610_neutraal

0 1
C          1.07438       -0.06684        0.00011
C          0.97990        1.40989       -0.35062
C          0.59679        1.67101       -1.80888
C         -0.78282        1.16063       -2.24477
N         -1.91567        1.83540       -1.57947
C         -2.03920        3.29462       -1.67719
C         -2.16546        3.77654       -3.12651
C         -3.30653        3.13262       -3.92613
C         -4.69070        3.27154       -3.30390
O         -5.03653        4.64094       -3.14552
C         -2.48128        1.18411       -0.47857
C         -2.93640       -0.14066       -0.59686
C         -3.52242       -0.82217        0.47789
C         -3.64887       -0.18159        1.70942
C         -3.21485        1.13297        1.85330
C         -2.64513        1.80609        0.76810
S         -4.06946       -2.50558        0.25449
C         -5.84890       -2.27224        0.50475
H          0.10244       -0.56240       -0.06455
H          1.43854       -0.18585        1.02566
H          1.77046       -0.58447       -0.66746
H          0.28040        1.90855        0.32691
H          1.95995        1.86795       -0.16862
H          0.67557        2.74691       -2.00233
H          1.34989        1.19877       -2.45307
H         -0.87554        1.32310       -3.32513
H         -0.81948        0.07189       -2.12970
H         -2.92933        3.64704       -1.14158
H         -1.18286        3.78328       -1.19813
H         -2.30161        4.86517       -3.11747
H         -1.22453        3.59923       -3.66092
H         -3.31896        3.60669       -4.91571
H         -3.09631        2.06983       -4.08968
H         -5.43470        2.81922       -3.96748
H         -4.76679        2.76628       -2.33636
H         -4.60687        4.95880       -2.33455
H         -2.86084       -0.64432       -1.55772
H         -4.07611       -0.69885        2.56409
H         -3.30831        1.63455        2.81286
H         -2.29365        2.82141        0.92899
H         -6.06006       -1.95448        1.52918
H         -6.23986       -1.52820       -0.19487
H         -6.36224       -3.22071        0.32539

--Link1--
%chk=JID_8610.chk
%mem=8GB
%nprocshared=4
# B3LYP/6-311++G(d,p) empiricaldispersion=gd3bj scf=xqc pop=npa geom=check

CID_138913060_JID_8610_Energie_neutraal

0 1

--Link1--
%chk=JID_8610.chk
%mem=8GB
%nprocshared=4
# B3LYP/6-311++G(d,p) empiricaldispersion=gd3bj scf=xqc pop=npa geom=check

CID_138913060_JID_8610_Energie_kation

1 2

--Link1--
%chk=JID_8610.chk
%mem=8GB
%nprocshared=4
# B3LYP/6-311++G(d,p) empiricaldispersion=gd3bj scf=xqc pop=npa geom=check

CID_138913060_JID_8610_Energie_anion

-1 2
