%chk=JID_7385.chk
%mem=8GB
%nprocshared=4
# opt freq B3LYP/6-31G(d) empiricaldispersion=gd3bj scf=xqc

CID_104465819_JID_7385_neutraal

0 1
C          1.03484        0.04172       -0.08394
C          0.42831       -1.26290       -0.61486
C          1.47626       -2.36803       -0.54002
C         -0.94873       -1.56411        0.03665
C         -1.03678       -1.67595        1.57094
C         -1.09011       -3.09414        2.15948
C         -2.01220       -3.95128        1.29501
C         -1.57713       -3.89851       -0.15594
O         -1.67145       -2.57653       -0.67100
N          0.26936       -3.64143        2.29933
C          0.33440       -4.87070        3.09503
C          0.65462       -6.10840        2.24690
C          1.89474       -5.98252        1.33931
C          2.18776       -7.29276        0.62939
C          3.02134       -8.05463        1.64114
O          3.64828       -7.08359        2.49101
C          3.19561       -5.77987        2.09817
H          1.37835       -0.05937        0.95016
H          0.30910        0.86037       -0.12795
H          1.89927        0.33657       -0.68930
H          0.23237       -1.11280       -1.68632
H          1.77785       -2.57519        0.48799
H          1.12840       -3.28928       -1.01024
H          2.38126       -2.06781       -1.08153
H         -1.52856       -0.65784       -0.19348
H         -1.99036       -1.20546        1.85630
H         -0.27384       -1.06801        2.06846
H         -1.52323       -3.00889        3.16511
H         -2.05478       -4.98587        1.64800
H         -3.03194       -3.55225        1.37561
H         -0.57113       -4.29855       -0.29480
H         -2.24686       -4.52310       -0.75653
H          0.84744       -2.93775        2.76236
H          1.11567       -4.74764        3.85398
H         -0.58815       -5.04452        3.66248
H          0.77063       -6.95896        2.93037
H         -0.20939       -6.34697        1.61510
H          1.73114       -5.17814        0.61621
H          2.79457       -7.09499       -0.26316
H          1.30039       -7.84609        0.30863
H          2.39910       -8.69897        2.27048
H          3.78746       -8.67352        1.16509
H          3.96207       -5.35385        1.43999
H          3.11972       -5.13916        2.97897

--Link1--
%chk=JID_7385.chk
%mem=8GB
%nprocshared=4
# B3LYP/6-311++G(d,p) empiricaldispersion=gd3bj scf=xqc pop=npa geom=check

CID_104465819_JID_7385_Energie_neutraal

0 1

--Link1--
%chk=JID_7385.chk
%mem=8GB
%nprocshared=4
# B3LYP/6-311++G(d,p) empiricaldispersion=gd3bj scf=xqc pop=npa geom=check

CID_104465819_JID_7385_Energie_kation

1 2

--Link1--
%chk=JID_7385.chk
%mem=8GB
%nprocshared=4
# B3LYP/6-311++G(d,p) empiricaldispersion=gd3bj scf=xqc pop=npa geom=check

CID_104465819_JID_7385_Energie_anion

-1 2
