%chk=JID_2611.chk
%mem=8GB
%nprocshared=4
# opt freq B3LYP/6-31G(d) empiricaldispersion=gd3bj scf=xqc

CID_63766199_JID_2611_neutraal

0 1
C          0.92162       -0.06065       -0.01338
C          0.21054       -0.82531       -1.13130
C          0.34242       -2.33173       -0.88847
C         -1.27884       -0.44480       -1.24185
C         -1.56192        1.02899       -1.59895
C         -1.05038        1.44438       -3.00298
N         -1.79054        0.76982       -4.08306
N         -3.04423        1.19441       -1.59170
S         -3.67290        2.65919       -1.06015
O         -2.69027        3.69523       -1.28511
O         -5.01151        2.74911       -1.59861
C         -3.80245        2.36135        0.68898
H          0.41792       -0.20334        0.94861
H          0.95761        1.01209       -0.22516
H          1.95657       -0.40333        0.09369
H          0.71595       -0.60424       -2.07800
H         -0.13723       -2.62763        0.05067
H         -0.12326       -2.89865       -1.70164
H          1.39596       -2.62708       -0.83916
H         -1.76211       -1.09929       -1.97952
H         -1.77248       -0.67164       -0.28613
H         -1.11436        1.66954       -0.83252
H         -1.19264        2.52255       -3.13376
H          0.02139        1.25356       -3.10993
H         -1.50647        1.17482       -4.97629
H         -1.51407       -0.21114       -4.12380
H         -3.44425        0.94360       -2.50660
H         -4.45326        1.50113        0.85566
H         -2.80490        2.18410        1.09499
H         -4.23694        3.25101        1.15001

--Link1--
%chk=JID_2611.chk
%mem=8GB
%nprocshared=4
# B3LYP/6-311++G(d,p) empiricaldispersion=gd3bj scf=xqc pop=npa geom=check

CID_63766199_JID_2611_Energie_neutraal

0 1

--Link1--
%chk=JID_2611.chk
%mem=8GB
%nprocshared=4
# B3LYP/6-311++G(d,p) empiricaldispersion=gd3bj scf=xqc pop=npa geom=check

CID_63766199_JID_2611_Energie_kation

1 2

--Link1--
%chk=JID_2611.chk
%mem=8GB
%nprocshared=4
# B3LYP/6-311++G(d,p) empiricaldispersion=gd3bj scf=xqc pop=npa geom=check

CID_63766199_JID_2611_Energie_anion

-1 2
