%chk=JID_6889.chk
%mem=8GB
%nprocshared=4
# opt freq B3LYP/6-31G(d) empiricaldispersion=gd3bj scf=xqc

CID_134838413_JID_6889_neutraal

0 1
C         -1.50200        0.71300        0.14900
C         -2.02372       -0.68265       -0.23343
C         -1.70877       -1.57182        0.98173
C         -1.78012       -0.57681        2.13701
C         -0.91972        0.54580        1.56377
C          0.55179        0.07557        1.52543
N          0.72320       -1.10871        0.68104
C         -0.27831       -2.15348        0.91019
C          2.10310       -1.59044        0.56419
C          2.87106       -2.00276        1.83795
C          2.48369       -3.33106        2.44114
C          1.94194       -3.39411        3.73267
C          1.59096       -4.62277        4.29503
C          1.78453       -5.80073        3.57663
C          2.33113       -5.75180        2.29601
C          2.68138       -4.52411        1.73172
H         -2.33871        1.42144        0.16605
H         -0.76641        1.08950       -0.56925
H         -3.10719       -0.63354       -0.39465
H         -1.56986       -1.05382       -1.15805
H         -2.43662       -2.38202        1.09049
H         -1.39020       -0.98034        3.07712
H         -2.80968       -0.23919        2.30559
H         -1.00244        1.46807        2.14736
H          1.17004        0.89281        1.13502
H          0.87721       -0.12224        2.55339
H         -0.23816       -2.88257        0.09215
H         -0.08643       -2.69232        1.84208
H          2.13406       -2.40409       -0.17160
H          2.67835       -0.77893        0.09797
H          3.93819       -2.06797        1.58368
H          2.81401       -1.20954        2.59209
H          1.78212       -2.48434        4.30658
H          1.16679       -4.66019        5.29496
H          1.51249       -6.75689        4.01548
H          2.48753       -6.67025        1.73652
H          3.11330       -4.50591        0.73370

--Link1--
%chk=JID_6889.chk
%mem=8GB
%nprocshared=4
# B3LYP/6-311++G(d,p) empiricaldispersion=gd3bj scf=xqc pop=npa geom=check

CID_134838413_JID_6889_Energie_neutraal

0 1

--Link1--
%chk=JID_6889.chk
%mem=8GB
%nprocshared=4
# B3LYP/6-311++G(d,p) empiricaldispersion=gd3bj scf=xqc pop=npa geom=check

CID_134838413_JID_6889_Energie_kation

1 2

--Link1--
%chk=JID_6889.chk
%mem=8GB
%nprocshared=4
# B3LYP/6-311++G(d,p) empiricaldispersion=gd3bj scf=xqc pop=npa geom=check

CID_134838413_JID_6889_Energie_anion

-1 2
