%chk=JID_2175.chk
%mem=8GB
%nprocshared=4
# opt freq B3LYP/6-31G(d) empiricaldispersion=gd3bj scf=xqc

CID_143258050_JID_2175_neutraal

0 1
C          0.91820       -0.05662       -0.01017
C          0.39238       -0.18382       -1.43161
C          0.83514       -1.47201       -2.06402
C          0.02757       -2.46032       -2.48537
C         -1.49025       -2.48555       -2.40374
C         -1.86065       -3.80485       -3.01436
C         -3.13063       -4.33065       -3.19198
C         -3.25136       -5.58743       -3.78904
C         -2.11167       -6.29754       -4.19761
C         -0.83537       -5.76077       -4.01481
C         -0.72414       -4.51304       -3.42186
C          0.52978       -3.74489       -3.12740
H          0.53884       -0.86427        0.62502
H          0.60007        0.89543        0.42665
H          2.01277       -0.08943        0.01317
H         -0.69890       -0.09384       -1.41905
H          0.77097        0.64935       -2.03478
H          1.91058       -1.58959       -2.19104
H         -1.82505       -2.44562       -1.36243
H         -1.92585       -1.66743       -2.98587
H         -4.01270       -3.78268       -2.87689
H         -4.23700       -6.02097       -3.93959
H         -2.22494       -7.27462       -4.66085
H          0.04486       -6.31088       -4.33133
H          1.16200       -4.30537       -2.43144
H          1.06903       -3.53034       -4.05547

--Link1--
%chk=JID_2175.chk
%mem=8GB
%nprocshared=4
# B3LYP/6-311++G(d,p) empiricaldispersion=gd3bj scf=xqc pop=npa geom=check

CID_143258050_JID_2175_Energie_neutraal

0 1

--Link1--
%chk=JID_2175.chk
%mem=8GB
%nprocshared=4
# B3LYP/6-311++G(d,p) empiricaldispersion=gd3bj scf=xqc pop=npa geom=check

CID_143258050_JID_2175_Energie_kation

1 2

--Link1--
%chk=JID_2175.chk
%mem=8GB
%nprocshared=4
# B3LYP/6-311++G(d,p) empiricaldispersion=gd3bj scf=xqc pop=npa geom=check

CID_143258050_JID_2175_Energie_anion

-1 2
