%chk=JID_4721.chk
%mem=8GB
%nprocshared=4
# opt freq B3LYP/6-31G(d) empiricaldispersion=gd3bj scf=xqc

CID_63314309_JID_4721_neutraal

0 1
C          0.98047       -0.08469        0.04946
C         -0.10802       -0.62747        0.96493
C          0.30358       -0.66954        2.43706
N          0.33075        0.62192        3.08974
C         -0.74095        1.28786        3.65013
N         -0.30832        2.40675        4.20273
N          1.04611        2.47705        4.02448
C          1.41962        1.39691        3.38297
S          3.05754        0.99140        3.03201
C          3.69590        0.65272        4.71036
C          3.68900        1.85402        5.65566
O          2.44967        1.96955        6.34763
C         -2.15995        0.83465        3.64479
N         -2.92961        1.57622        2.65010
H          1.19139        0.96700        0.26435
H          0.66065       -0.15318       -0.99527
H          1.90758       -0.65633        0.15676
H         -1.02035       -0.03523        0.83388
H         -0.34249       -1.64951        0.64391
H         -0.39840       -1.29720        2.99713
H          1.27988       -1.15115        2.55242
H          3.12894       -0.18209        5.13587
H          4.73005        0.32189        4.57008
H          4.45054        1.69728        6.42675
H          3.92123        2.79898        5.15353
H          1.79910        2.34581        5.71481
H         -2.25470       -0.23506        3.44416
H         -2.58800        1.01168        4.63820
H         -3.92234        1.43603        2.83101
H         -2.76401        2.57320        2.81354

--Link1--
%chk=JID_4721.chk
%mem=8GB
%nprocshared=4
# B3LYP/6-311++G(d,p) empiricaldispersion=gd3bj scf=xqc pop=npa geom=check

CID_63314309_JID_4721_Energie_neutraal

0 1

--Link1--
%chk=JID_4721.chk
%mem=8GB
%nprocshared=4
# B3LYP/6-311++G(d,p) empiricaldispersion=gd3bj scf=xqc pop=npa geom=check

CID_63314309_JID_4721_Energie_kation

1 2

--Link1--
%chk=JID_4721.chk
%mem=8GB
%nprocshared=4
# B3LYP/6-311++G(d,p) empiricaldispersion=gd3bj scf=xqc pop=npa geom=check

CID_63314309_JID_4721_Energie_anion

-1 2
