%chk=JID_7450.chk
%mem=8GB
%nprocshared=4
# opt freq B3LYP/6-31G(d) empiricaldispersion=gd3bj scf=xqc

CID_103822947_JID_7450_neutraal

0 1
C          0.93119        0.03253        0.06486
C          0.01079       -0.43085        1.18693
C          0.60151       -0.48024        2.62177
C          1.82329       -1.41704        2.73586
C          2.57036       -0.95916        3.99077
C          2.12822        0.48054        4.25043
C          1.22397        0.85354        3.07865
C         -0.51213       -0.98303        3.60151
N         -1.66219       -0.07953        3.65019
C         -2.81697       -0.65094        4.36067
C         -2.64548       -0.59724        5.88044
C         -4.05916        0.09920        3.92998
C         -4.23096        1.47128        3.84999
S         -5.80929        1.84661        3.30518
C         -6.16299        0.16895        3.21741
N         -5.18920       -0.63578        3.58234
C         -7.50068       -0.28607        2.75239
H          1.25745        1.06610        0.20676
H          0.39302       -0.00630       -0.88871
H          1.81237       -0.60522       -0.03710
H         -0.86285        0.23249        1.17411
H         -0.35782       -1.43109        0.92407
H          1.54590       -2.47488        2.79400
H          2.49751       -1.30694        1.88046
H          3.65381       -1.02685        3.84635
H          2.31715       -1.59247        4.84838
H          2.98250        1.16050        4.32975
H          1.57629        0.53945        5.19550
H          1.85271        1.28744        2.29347
H          0.49007        1.61500        3.35635
H         -0.83706       -1.97531        3.26174
H         -0.10961       -1.11455        4.61150
H         -1.39528        0.79900        4.08701
H         -2.95390       -1.69723        4.05720
H         -2.48290        0.42758        6.23415
H         -3.54142       -0.97809        6.38417
H         -1.79835       -1.20724        6.20993
H         -3.51500        2.24971        4.06759
H         -8.29202        0.10058        3.40217
H         -7.69055        0.04909        1.72772
H         -7.55824       -1.37921        2.76474

--Link1--
%chk=JID_7450.chk
%mem=8GB
%nprocshared=4
# B3LYP/6-311++G(d,p) empiricaldispersion=gd3bj scf=xqc pop=npa geom=check

CID_103822947_JID_7450_Energie_neutraal

0 1

--Link1--
%chk=JID_7450.chk
%mem=8GB
%nprocshared=4
# B3LYP/6-311++G(d,p) empiricaldispersion=gd3bj scf=xqc pop=npa geom=check

CID_103822947_JID_7450_Energie_kation

1 2

--Link1--
%chk=JID_7450.chk
%mem=8GB
%nprocshared=4
# B3LYP/6-311++G(d,p) empiricaldispersion=gd3bj scf=xqc pop=npa geom=check

CID_103822947_JID_7450_Energie_anion

-1 2
