%chk=JID_5306.chk
%mem=8GB
%nprocshared=4
# opt freq B3LYP/6-31G(d) empiricaldispersion=gd3bj scf=xqc

CID_116554681_JID_5306_neutraal

0 1
C          0.94970        0.04834       -0.07165
C          0.23263        1.34829        0.26006
C          0.41095        2.43876       -0.80186
C         -0.16780        2.12129       -2.18893
C         -1.69707        2.35969       -2.24831
O         -2.14579        3.46762       -2.57839
C         -2.64994        1.28850       -1.76048
C         -2.30869       -0.05408       -2.29026
N         -1.79854       -0.33056       -3.47430
C         -1.70346       -1.69100       -3.47615
N         -2.12892       -2.28575       -2.36240
N         -2.52707       -1.23428       -1.62422
C         -3.09777       -1.45587       -0.31227
C         -4.61550       -1.45215       -0.33660
N          0.46884        3.04986       -3.15884
H          0.51745       -0.44288       -0.94693
H          0.86980       -0.64805        0.76938
H          2.01267        0.22465       -0.26410
H         -0.82507        1.14810        0.44326
H          0.63718        1.72834        1.20649
H         -0.03929        3.36434       -0.41882
H          1.48862        2.63500       -0.88904
H          0.08776        1.11268       -2.51297
H         -2.67088        1.32369       -0.67003
H         -3.65551        1.54784       -2.11288
H         -1.31320       -2.26114       -4.30971
H         -2.72661       -2.41907        0.05603
H         -2.71459       -0.68291        0.36052
H         -5.00062       -2.22954       -1.00502
H         -5.01202       -1.63664        0.66653
H         -5.00479       -0.48992       -0.68513
H          0.12808        2.80964       -4.09243
H          0.07469        3.98173       -2.99117

--Link1--
%chk=JID_5306.chk
%mem=8GB
%nprocshared=4
# B3LYP/6-311++G(d,p) empiricaldispersion=gd3bj scf=xqc pop=npa geom=check

CID_116554681_JID_5306_Energie_neutraal

0 1

--Link1--
%chk=JID_5306.chk
%mem=8GB
%nprocshared=4
# B3LYP/6-311++G(d,p) empiricaldispersion=gd3bj scf=xqc pop=npa geom=check

CID_116554681_JID_5306_Energie_kation

1 2

--Link1--
%chk=JID_5306.chk
%mem=8GB
%nprocshared=4
# B3LYP/6-311++G(d,p) empiricaldispersion=gd3bj scf=xqc pop=npa geom=check

CID_116554681_JID_5306_Energie_anion

-1 2
