%chk=JID_8029.chk
%mem=8GB
%nprocshared=4
# opt freq B3LYP/6-31G(d) empiricaldispersion=gd3bj scf=xqc

CID_63957310_JID_8029_neutraal

0 1
C          0.91866       -0.03143        0.04894
C          0.47126        1.38287        0.43196
C          0.96903        2.42128       -0.59827
N          0.47933        2.19430       -1.95064
C         -0.71205        2.61992       -2.45100
O         -1.34232        1.86662       -3.18948
N         -1.16636        3.86125       -2.05803
C         -2.57476        4.16399       -2.28275
C         -2.78207        4.85292       -3.62671
C         -1.90954        6.10534       -3.72944
C         -0.42980        5.81925       -3.42324
C         -0.27890        5.03036       -2.11165
C          0.33048        5.12144       -4.53403
O          1.45844        4.66121       -4.44126
O         -0.29990        5.10127       -5.72099
C         -1.04917        1.49742        0.64246
S         -1.63711        0.60100        2.12369
C         -2.36664       -0.84823        1.31961
H          0.36370       -0.40955       -0.81582
H          0.77092       -0.73184        0.87662
H          1.98565       -0.04800       -0.19819
H          0.96893        1.63851        1.37798
H          0.68957        3.41845       -0.24891
H          2.06253        2.38701       -0.65802
H          0.74213        1.31033       -2.36808
H         -2.90535        4.81533       -1.46497
H         -3.17142        3.24638       -2.23023
H         -3.83642        5.12684       -3.74390
H         -2.53663        4.16294       -4.44226
H         -2.03157        6.56083       -4.71867
H         -2.27703        6.84418       -3.00496
H          0.07529        6.78783       -3.30887
H          0.76587        4.73800       -1.97615
H         -0.55249        5.67071       -1.26427
H          0.31299        4.61046       -6.30815
H         -1.31562        2.54818        0.80138
H         -1.60466        1.15412       -0.23567
H         -3.18417       -0.54497        0.66032
H         -1.61566       -1.39640        0.74651
H         -2.77079       -1.51547        2.08565

--Link1--
%chk=JID_8029.chk
%mem=8GB
%nprocshared=4
# B3LYP/6-311++G(d,p) empiricaldispersion=gd3bj scf=xqc pop=npa geom=check

CID_63957310_JID_8029_Energie_neutraal

0 1

--Link1--
%chk=JID_8029.chk
%mem=8GB
%nprocshared=4
# B3LYP/6-311++G(d,p) empiricaldispersion=gd3bj scf=xqc pop=npa geom=check

CID_63957310_JID_8029_Energie_kation

1 2

--Link1--
%chk=JID_8029.chk
%mem=8GB
%nprocshared=4
# B3LYP/6-311++G(d,p) empiricaldispersion=gd3bj scf=xqc pop=npa geom=check

CID_63957310_JID_8029_Energie_anion

-1 2
