%chk=JID_9087.chk
%mem=8GB
%nprocshared=4
# opt freq B3LYP/6-31G(d) empiricaldispersion=gd3bj scf=xqc

CID_65057832_JID_9087_neutraal

0 1
C          0.94874        0.06006        0.06136
C          0.35512       -1.31956       -0.19436
C          0.55599       -2.31479        0.96273
C         -0.07924       -1.89975        2.31535
C         -1.59422       -1.69577        2.26709
C         -2.17759       -0.64645        2.99917
C         -3.55615       -0.41759        2.96924
C         -4.38099       -1.22654        2.19450
C         -3.82551       -2.25577        1.44256
C         -2.44652       -2.48168        1.47389
N          0.42689       -2.69865        3.44794
C          0.55918       -1.98237        4.72872
C         -0.67533       -2.04669        5.61565
O         -1.29161       -3.03908        5.97145
O         -1.03446       -0.83311        6.09179
C          0.35129       -4.15872        3.56773
C         -0.99479       -4.79898        3.22683
C          1.47576       -4.89658        2.80416
C          2.87795       -4.44402        3.18854
H          0.39169        0.60156        0.83120
H          0.90787        0.65944       -0.85398
H          1.99555       -0.01253        0.37219
H         -0.70703       -1.21648       -0.43903
H          0.83641       -1.73967       -1.08628
H          0.17367       -3.28796        0.63691
H          1.63841       -2.43547        1.10061
H          0.33135       -0.89420        2.47511
H         -1.55534        0.01614        3.59678
H         -3.98332        0.39692        3.54779
H         -5.45288       -1.05141        2.16989
H         -4.46258       -2.88561        0.82699
H         -2.05194       -3.28569        0.85939
H          1.39685       -2.39217        5.30688
H          0.82447       -0.93190        4.55792
H         -1.82868       -1.03565        6.62996
H          0.52812       -4.41800        4.62148
H         -1.82961       -4.27271        3.69781
H         -1.15851       -4.85330        2.14866
H         -1.02385       -5.82924        3.60155
H          1.39998       -5.97010        3.02321
H          1.34949       -4.80611        1.72156
H          3.04372       -4.55432        4.26473
H          3.62266       -5.05494        2.66803
H          3.05473       -3.39979        2.91559

--Link1--
%chk=JID_9087.chk
%mem=8GB
%nprocshared=4
# B3LYP/6-311++G(d,p) empiricaldispersion=gd3bj scf=xqc pop=npa geom=check

CID_65057832_JID_9087_Energie_neutraal

0 1

--Link1--
%chk=JID_9087.chk
%mem=8GB
%nprocshared=4
# B3LYP/6-311++G(d,p) empiricaldispersion=gd3bj scf=xqc pop=npa geom=check

CID_65057832_JID_9087_Energie_kation

1 2

--Link1--
%chk=JID_9087.chk
%mem=8GB
%nprocshared=4
# B3LYP/6-311++G(d,p) empiricaldispersion=gd3bj scf=xqc pop=npa geom=check

CID_65057832_JID_9087_Energie_anion

-1 2
