%chk=JID_10132.chk
%mem=8GB
%nprocshared=4
# opt freq B3LYP/6-31G(d) empiricaldispersion=gd3bj scf=xqc

CID_60995222_JID_10132_neutraal

0 1
C          0.90184       -0.00083       -0.01906
C         -0.06200       -0.89839       -0.81334
C          0.02705       -2.39168       -0.37060
C         -0.28575       -2.88028        1.04063
C         -0.85458       -2.07831        2.04006
C         -1.12657       -2.59140        3.31080
C         -0.84136       -3.91818        3.60531
C         -0.28870       -4.74157        2.62663
C         -0.01618       -4.23804        1.34890
O          0.51653       -4.98626        0.32653
C          0.70140       -6.37677        0.55522
C         -1.53163       -0.39200       -0.61283
O         -1.85447        0.55235        0.10153
N         -2.47783       -1.04730       -1.35454
N          0.15950       -0.81121       -2.30615
C          1.52721       -0.58853       -2.80799
C          2.57255       -1.72833       -2.72445
N          2.45822       -2.77529       -3.76009
C          3.62459       -3.66096       -3.70226
C          1.23627       -3.56692       -3.62001
H          0.64002        0.05818        1.04085
H          0.87815        1.03005       -0.39255
H          1.93387       -0.36274       -0.07324
H         -0.61601       -2.98478       -1.03682
H          1.05343       -2.71829       -0.55918
H         -1.10846       -1.03744        1.87210
H         -1.56562       -1.94746        4.06922
H         -1.05309       -4.31364        4.59507
H         -0.08225       -5.77224        2.89321
H         -0.24650       -6.86894        0.79668
H          1.07783       -6.81967       -0.37195
H          1.45051       -6.55140        1.33417
H         -2.18170       -1.62325       -2.13404
H         -3.42259       -0.68972       -1.33806
H         -0.38299       -0.00664       -2.63450
H          1.42794       -0.32441       -3.86983
H          1.94980        0.31270       -2.34896
H          3.54350       -1.23516       -2.87421
H          2.62316       -2.15651       -1.72026
H          3.70135       -4.18128       -2.74047
H          3.57874       -4.41223       -4.49877
H          4.54868       -3.09464       -3.86373
H          1.16256       -4.04706       -2.63859
H          0.34339       -2.95950       -3.78943
H          1.20351       -4.35490       -4.38183

--Link1--
%chk=JID_10132.chk
%mem=8GB
%nprocshared=4
# B3LYP/6-311++G(d,p) empiricaldispersion=gd3bj scf=xqc pop=npa geom=check

CID_60995222_JID_10132_Energie_neutraal

0 1

--Link1--
%chk=JID_10132.chk
%mem=8GB
%nprocshared=4
# B3LYP/6-311++G(d,p) empiricaldispersion=gd3bj scf=xqc pop=npa geom=check

CID_60995222_JID_10132_Energie_kation

1 2

--Link1--
%chk=JID_10132.chk
%mem=8GB
%nprocshared=4
# B3LYP/6-311++G(d,p) empiricaldispersion=gd3bj scf=xqc pop=npa geom=check

CID_60995222_JID_10132_Energie_anion

-1 2
