%chk=JID_10049.chk
%mem=8GB
%nprocshared=4
# opt freq B3LYP/6-31G(d) empiricaldispersion=gd3bj scf=xqc

CID_104416974_JID_10049_neutraal

0 1
C          1.02317       -0.00676        0.09704
C          1.72676       -1.34366        0.24475
O          2.52406       -1.29165        1.42550
C          3.10689       -2.46948        1.83532
C          3.64775       -2.44841        3.13321
C          4.22657       -3.60899        3.64167
C          4.34336       -4.74911        2.84143
C          3.83661       -4.78371        1.53573
C          3.23710       -3.61802        1.04099
N          4.06341       -5.92266        0.77344
C          3.44933       -6.17074       -0.52784
C          4.30459       -5.59437       -1.65280
C          5.50685       -6.45892       -1.95165
O          5.53505       -7.66222       -1.68350
N          6.57094       -5.94675       -2.63243
C          6.97058       -4.57403       -2.99647
C          7.30669       -3.75058       -1.74409
C          8.25388       -4.68278       -3.84836
C          5.91165       -3.86411       -3.85356
N          3.42500       -1.34922        3.98608
H          0.39412        0.19620        0.97014
H          0.39784        0.00778       -0.80001
H          1.75221        0.80789        0.03324
H          0.97445       -2.13762        0.32012
H          2.36331       -1.50859       -0.63183
H          4.59590       -3.63664        4.66255
H          4.83565       -5.62543        3.25658
H          2.87215       -3.60715        0.02297
H          4.22605       -6.76855        1.31475
H          3.32238       -7.25257       -0.65135
H          2.43721       -5.75089       -0.56414
H          3.70687       -5.55814       -2.57081
H          4.60735       -4.58013       -1.40006
H          7.28855       -6.65776       -2.72489
H          8.07268       -4.25113       -1.14030
H          7.68776       -2.75917       -2.01446
H          6.43958       -3.59838       -1.09686
H          8.07563       -5.27211       -4.75558
H          8.61880       -3.69555       -4.15356
H          9.05813       -5.17867       -3.29197
H          5.60325       -4.49205       -4.69719
H          5.01285       -3.60746       -3.28869
H          6.30143       -2.92355       -4.26032
H          3.21968       -0.51416        3.43928
H          4.16315       -1.20863        4.66611

--Link1--
%chk=JID_10049.chk
%mem=8GB
%nprocshared=4
# B3LYP/6-311++G(d,p) empiricaldispersion=gd3bj scf=xqc pop=npa geom=check

CID_104416974_JID_10049_Energie_neutraal

0 1

--Link1--
%chk=JID_10049.chk
%mem=8GB
%nprocshared=4
# B3LYP/6-311++G(d,p) empiricaldispersion=gd3bj scf=xqc pop=npa geom=check

CID_104416974_JID_10049_Energie_kation

1 2

--Link1--
%chk=JID_10049.chk
%mem=8GB
%nprocshared=4
# B3LYP/6-311++G(d,p) empiricaldispersion=gd3bj scf=xqc pop=npa geom=check

CID_104416974_JID_10049_Energie_anion

-1 2
