%chk=JID_7184.chk
%mem=8GB
%nprocshared=4
# opt freq B3LYP/6-31G(d) empiricaldispersion=gd3bj scf=xqc

CID_152601733_JID_7184_neutraal

0 1
C          1.07766       -0.03318       -0.05355
N          0.70536       -1.39526       -0.34750
C          0.00997       -2.26671        0.43506
O         -0.15221       -3.42281        0.04474
C         -0.53177       -1.80539        1.76924
C          0.56158       -1.74799        2.83193
C          0.78134       -0.37243        3.30732
C          0.93172        0.76117        3.67494
C          1.06696        2.12312        4.09015
C          1.47074        3.09762        3.17254
C          1.57141        4.44177        3.55017
C          1.24234        4.79421        4.86794
C          0.84997        3.82140        5.79125
C          0.76279        2.48573        5.40210
N          1.93256        5.37488        2.56102
N          2.66012        6.30322        2.95983
N          3.31906        7.16395        3.31544
H          0.25618        0.49761        0.43074
H          1.32821        0.46416       -0.99378
H          1.95638       -0.04281        0.59525
H          1.06063       -1.81735       -1.19791
H         -1.06991       -0.85964        1.64216
H         -1.28852       -2.54143        2.07098
H          1.50560       -2.16771        2.46568
H          0.25757       -2.36211        3.68840
H          1.69939        2.81725        2.14708
H          1.27372        5.83231        5.19017
H          0.59885        4.10801        6.80960
H          0.44320        1.73500        6.12142

--Link1--
%chk=JID_7184.chk
%mem=8GB
%nprocshared=4
# B3LYP/6-311++G(d,p) empiricaldispersion=gd3bj scf=xqc pop=npa geom=check

CID_152601733_JID_7184_Energie_neutraal

0 1

--Link1--
%chk=JID_7184.chk
%mem=8GB
%nprocshared=4
# B3LYP/6-311++G(d,p) empiricaldispersion=gd3bj scf=xqc pop=npa geom=check

CID_152601733_JID_7184_Energie_kation

1 2

--Link1--
%chk=JID_7184.chk
%mem=8GB
%nprocshared=4
# B3LYP/6-311++G(d,p) empiricaldispersion=gd3bj scf=xqc pop=npa geom=check

CID_152601733_JID_7184_Energie_anion

-1 2
