%chk=JID_8082.chk
%mem=8GB
%nprocshared=4
# opt freq B3LYP/6-31G(d) empiricaldispersion=gd3bj scf=xqc

CID_134061107_JID_8082_neutraal

0 1
C          1.05785        0.06985       -0.04213
C          0.87787        0.98738        1.15766
N          1.25051        2.37080        0.84344
C          0.20937        3.17639        0.17715
C         -0.28950        4.39110        0.96674
C         -0.71598        5.38459       -0.10452
C          0.30802        5.17890       -1.20907
C          0.52138        3.66972       -1.24234
C          2.58812        2.70989        1.10010
O          3.38881        1.93564        1.62713
C          3.10966        4.04801        0.81081
C          3.83891        4.30858       -0.34346
N          4.40173        5.51684       -0.60309
C          4.28464        6.46742        0.35067
C          3.63511        6.27366        1.55893
C          3.05154        5.03390        1.79859
O          3.98336        3.29615       -1.27058
C          4.81868        3.64448       -2.36829
H          0.43070        0.38758       -0.88127
H          0.78256       -0.95630        0.21987
H          2.09782        0.06924       -0.38470
H         -0.16061        0.96935        1.50767
H          1.48653        0.61265        1.98819
H         -0.66244        2.51541        0.06715
H         -1.12248        4.12825        1.62760
H          0.48122        4.83116        1.59785
H         -0.72848        6.41387        0.26505
H         -1.72040        5.13902       -0.46927
H          1.24046        5.69341       -0.95646
H         -0.03783        5.56702       -2.17165
H          1.50619        3.39157       -1.61525
H         -0.20179        3.22532       -1.93892
H          4.75639        7.41785        0.11598
H          3.59789        7.06317        2.30148
H          2.56803        4.82906        2.74992
H          4.38300        4.46163       -2.95360
H          5.83194        3.89400       -2.03478
H          4.89026        2.77016       -3.02248

--Link1--
%chk=JID_8082.chk
%mem=8GB
%nprocshared=4
# B3LYP/6-311++G(d,p) empiricaldispersion=gd3bj scf=xqc pop=npa geom=check

CID_134061107_JID_8082_Energie_neutraal

0 1

--Link1--
%chk=JID_8082.chk
%mem=8GB
%nprocshared=4
# B3LYP/6-311++G(d,p) empiricaldispersion=gd3bj scf=xqc pop=npa geom=check

CID_134061107_JID_8082_Energie_kation

1 2

--Link1--
%chk=JID_8082.chk
%mem=8GB
%nprocshared=4
# B3LYP/6-311++G(d,p) empiricaldispersion=gd3bj scf=xqc pop=npa geom=check

CID_134061107_JID_8082_Energie_anion

-1 2
