%chk=JID_7583.chk
%mem=8GB
%nprocshared=4
# opt freq B3LYP/6-31G(d) empiricaldispersion=gd3bj scf=xqc

CID_115115469_JID_7583_neutraal

0 1
C          1.05353        0.02556        0.08050
C          0.30931        1.28146       -0.29650
O         -0.66098        1.23239       -1.04846
C          0.79503        2.58125        0.24798
C         -0.09909        3.67143        0.39930
C         -1.48772        3.86298        0.14727
C         -1.81509        5.14746        0.50480
N         -0.68078        5.76580        0.97017
C          0.38524        4.88220        0.92157
C          1.73403        5.03452        1.28705
C          2.60110        3.95365        1.12097
C          2.14378        2.74423        0.60911
C         -0.67241        7.14330        1.43326
C         -0.36561        7.31335        2.92561
C          0.18293        8.72886        3.01504
C          1.04924        8.84825        1.77106
C          0.28866        8.08620        0.68708
H          0.37892       -0.83092       -0.01538
H          1.38328        0.06368        1.12229
H          1.90708       -0.11491       -0.58719
H         -2.17461        3.13117       -0.26030
H         -2.76441        5.66539        0.45984
H          2.11258        5.96837        1.68820
H          3.64900        4.06319        1.39258
H          2.85870        1.93594        0.48197
H         -1.68798        7.52980        1.26419
H         -1.25984        7.18183        3.54360
H          0.38371        6.59810        3.28074
H          0.75016        8.89792        3.93468
H         -0.63634        9.45654        2.97763
H          2.02205        8.37501        1.94709
H          1.23203        9.89015        1.49182
H          0.97614        7.57812        0.00377
H         -0.29389        8.79070        0.08053

--Link1--
%chk=JID_7583.chk
%mem=8GB
%nprocshared=4
# B3LYP/6-311++G(d,p) empiricaldispersion=gd3bj scf=xqc pop=npa geom=check

CID_115115469_JID_7583_Energie_neutraal

0 1

--Link1--
%chk=JID_7583.chk
%mem=8GB
%nprocshared=4
# B3LYP/6-311++G(d,p) empiricaldispersion=gd3bj scf=xqc pop=npa geom=check

CID_115115469_JID_7583_Energie_kation

1 2

--Link1--
%chk=JID_7583.chk
%mem=8GB
%nprocshared=4
# B3LYP/6-311++G(d,p) empiricaldispersion=gd3bj scf=xqc pop=npa geom=check

CID_115115469_JID_7583_Energie_anion

-1 2
