%chk=JID_2422.chk
%mem=8GB
%nprocshared=4
# opt freq B3LYP/6-31G(d) empiricaldispersion=gd3bj scf=xqc

CID_147078642_JID_2422_neutraal

0 1
C          0.98108        0.06846       -0.07039
C          0.38498        0.92860       -1.17378
C          0.89653        0.56964       -2.57387
C          0.63223       -0.88014       -3.04348
C         -0.86866       -1.20426       -3.00548
C          1.17894       -1.10133       -4.47033
C          1.11205       -2.55860       -4.97836
C          2.57063       -2.74993       -5.39971
C          2.96368       -1.40180       -6.07749
C          2.69553       -0.88914       -4.62015
C          3.44264       -2.21155       -4.21673
O          3.19553       -2.75669       -2.91090
H          0.65050       -0.97128       -0.14848
H          0.66571        0.44275        0.90888
H          2.07495        0.08820       -0.10405
H         -0.70809        0.87352       -1.13584
H          0.64396        1.97582       -0.97434
H          0.44677        1.26837       -3.29112
H          1.97484        0.76557       -2.58795
H          1.13568       -1.56271       -2.35247
H         -1.43956       -0.49944       -3.61956
H         -1.07303       -2.21359       -3.37532
H         -1.26009       -1.16067       -1.98471
H          0.64124       -0.44020       -5.16373
H          0.82596       -3.27945       -4.20627
H          0.42637       -2.65635       -5.82613
H          2.86978       -3.67718       -5.88651
H          3.99778       -1.32429       -6.43436
H          2.30065       -1.03321       -6.86657
H          3.14708        0.06818       -4.36292
H          4.52410       -2.20042       -4.40800
H          3.54703       -3.66247       -2.94723

--Link1--
%chk=JID_2422.chk
%mem=8GB
%nprocshared=4
# B3LYP/6-311++G(d,p) empiricaldispersion=gd3bj scf=xqc pop=npa geom=check

CID_147078642_JID_2422_Energie_neutraal

0 1

--Link1--
%chk=JID_2422.chk
%mem=8GB
%nprocshared=4
# B3LYP/6-311++G(d,p) empiricaldispersion=gd3bj scf=xqc pop=npa geom=check

CID_147078642_JID_2422_Energie_kation

1 2

--Link1--
%chk=JID_2422.chk
%mem=8GB
%nprocshared=4
# B3LYP/6-311++G(d,p) empiricaldispersion=gd3bj scf=xqc pop=npa geom=check

CID_147078642_JID_2422_Energie_anion

-1 2
