%chk=JID_7924.chk
%mem=8GB
%nprocshared=4
# opt freq B3LYP/6-31G(d) empiricaldispersion=gd3bj scf=xqc

CID_65957142_JID_7924_neutraal

0 1
C          1.08979        0.02095       -0.03870
C          0.83191        1.06980        1.04675
C          1.38561        2.41347        0.59349
C          2.60884        2.86690        1.11801
C          3.17998        4.06238        0.67488
C          2.52175        4.82333       -0.29262
C          1.31216        4.38835       -0.83571
C          0.75207        3.18635       -0.39698
S          3.26626        6.30761       -0.89874
O          4.67668        6.29661       -0.58650
O          2.77067        6.58244       -2.22715
N          2.58486        7.47351        0.09852
N         -0.60203        1.06883        1.34977
C         -0.88686        1.47600        2.73894
C         -1.12809        3.00173        2.85960
N         -2.53929        2.78096        2.45799
C         -2.42315        1.38477        2.95306
H          0.56424        0.25591       -0.97191
H          0.75967       -0.97119        0.29030
H          2.15891       -0.04818       -0.27101
H          1.38346        0.73717        1.93615
H          3.13896        2.27620        1.86301
H          4.13771        4.38338        1.07837
H          0.80674        4.96782       -1.60512
H         -0.18089        2.85370       -0.84690
H          3.31609        7.92882        0.64503
H          2.02457        8.11842       -0.45929
H         -1.13420        1.60087        0.66293
H         -0.27967        0.99766        3.51202
H         -1.02623        3.37415        3.88733
H         -0.56675        3.67060        2.20473
H         -3.21980        3.35294        2.95452
H         -2.97073        0.64201        2.36415
H         -2.71572        1.27294        4.00465

--Link1--
%chk=JID_7924.chk
%mem=8GB
%nprocshared=4
# B3LYP/6-311++G(d,p) empiricaldispersion=gd3bj scf=xqc pop=npa geom=check

CID_65957142_JID_7924_Energie_neutraal

0 1

--Link1--
%chk=JID_7924.chk
%mem=8GB
%nprocshared=4
# B3LYP/6-311++G(d,p) empiricaldispersion=gd3bj scf=xqc pop=npa geom=check

CID_65957142_JID_7924_Energie_kation

1 2

--Link1--
%chk=JID_7924.chk
%mem=8GB
%nprocshared=4
# B3LYP/6-311++G(d,p) empiricaldispersion=gd3bj scf=xqc pop=npa geom=check

CID_65957142_JID_7924_Energie_anion

-1 2
