%chk=JID_8614.chk
%mem=8GB
%nprocshared=4
# opt freq B3LYP/6-31G(d) empiricaldispersion=gd3bj scf=xqc

CID_80131839_JID_8614_neutraal

0 1
C         -1.84900       -0.00800        0.43200
C         -0.81626        0.15018       -0.68864
C          0.29122       -0.92455       -0.63265
O          1.21568        0.00983       -0.01462
C          0.31342        1.11156       -0.27582
C         -1.50364        0.45010       -2.02682
N         -0.62299        0.30882       -3.18568
C         -1.27691        0.64652       -4.45436
C         -1.69708        2.11761       -4.66697
C         -0.63052        3.18405       -4.36194
O          0.30203        3.39049       -5.43038
C          1.41442        2.49507       -5.49213
C          2.26458        2.63212       -4.28619
C          3.00948        3.66269       -3.75141
C          3.61601        3.14979       -2.57891
C          3.20479        1.84223       -2.47337
O          2.37128        1.52395       -3.49688
O         -2.15742        2.28374       -6.01552
H         -2.51345       -0.85538        0.23084
H         -1.37287       -0.18535        1.40309
H         -2.46612        0.89251        0.52369
H          0.09475       -1.78174        0.01907
H          0.69070       -1.29066       -1.58272
H          0.70364        1.77050       -1.05540
H          0.13673        1.70718        0.62547
H         -2.34353       -0.24376       -2.15667
H         -1.92209        1.46203       -1.97991
H          0.24464        0.83885       -3.07612
H         -0.62294        0.32940       -5.27291
H         -2.16409        0.01142       -4.58320
H         -2.55993        2.31235       -4.01947
H         -1.15732        4.14251       -4.27750
H         -0.13745        3.03128       -3.39777
H          1.08053        1.46969       -5.65071
H          1.99978        2.77447       -6.37471
H          3.10110        4.65890       -4.16170
H          4.27420        3.66599       -1.89423
H          3.39268        1.05012       -1.75974
H         -1.42230        2.70221       -6.50559

--Link1--
%chk=JID_8614.chk
%mem=8GB
%nprocshared=4
# B3LYP/6-311++G(d,p) empiricaldispersion=gd3bj scf=xqc pop=npa geom=check

CID_80131839_JID_8614_Energie_neutraal

0 1

--Link1--
%chk=JID_8614.chk
%mem=8GB
%nprocshared=4
# B3LYP/6-311++G(d,p) empiricaldispersion=gd3bj scf=xqc pop=npa geom=check

CID_80131839_JID_8614_Energie_kation

1 2

--Link1--
%chk=JID_8614.chk
%mem=8GB
%nprocshared=4
# B3LYP/6-311++G(d,p) empiricaldispersion=gd3bj scf=xqc pop=npa geom=check

CID_80131839_JID_8614_Energie_anion

-1 2
