%chk=JID_8062.chk
%mem=8GB
%nprocshared=4
# opt freq B3LYP/6-31G(d) empiricaldispersion=gd3bj scf=xqc

CID_83243577_JID_8062_neutraal

0 1
C          1.05881        0.03391        0.07343
C          1.39451       -0.03872        1.55483
C          1.96448        1.26349        2.12406
C          1.11642        2.53829        1.97031
N          1.96191        3.68796        2.33654
C          1.01318        4.78181        2.62643
C         -0.23174        4.05507        3.10366
O         -1.23603        4.57208        3.56604
N         -0.02217        2.69507        2.84280
C         -1.17883        1.81719        2.79211
C         -1.39333        1.12409        4.13186
C         -0.23007        0.44111        4.90761
C         -1.01844        0.75189        6.19859
C         -1.64504        1.93887        5.43480
C          1.52257        5.76848        3.68034
C          2.84839        6.47109        3.32707
C          2.74798        7.28856        2.03867
C          3.27738        7.37844        4.48320
H          0.22206        0.71146       -0.11808
H          0.77184       -0.95645       -0.29462
H          1.92095        0.37393       -0.50894
H          0.51849       -0.36521        2.12066
H          2.14692       -0.82503        1.69608
H          2.20832        1.09941        3.18049
H          2.92757        1.42908        1.61974
H          0.78375        2.67120        0.93420
H          2.42394        3.44380        3.21268
H          0.75294        5.29563        1.69410
H         -2.06896        2.40324        2.53399
H         -1.05246        1.08569        1.99224
H         -2.21751        0.40685        3.97594
H         -0.07127       -0.61848        4.69290
H          0.73043        0.96343        4.86794
H         -0.41714        1.01205        7.07309
H         -1.73826       -0.02635        6.47712
H         -1.06358        2.86024        5.53823
H         -2.69186        2.15162        5.66604
H          0.74710        6.52613        3.85772
H          1.64242        5.24255        4.63803
H          3.63195        5.71520        3.19368
H          1.93568        8.02096        2.09546
H          3.68013        7.83216        1.85019
H          2.56820        6.64549        1.17187
H          3.39307        6.80268        5.40756
H          4.23875        7.85632        4.26663
H          2.53993        8.16780        4.66453

--Link1--
%chk=JID_8062.chk
%mem=8GB
%nprocshared=4
# B3LYP/6-311++G(d,p) empiricaldispersion=gd3bj scf=xqc pop=npa geom=check

CID_83243577_JID_8062_Energie_neutraal

0 1

--Link1--
%chk=JID_8062.chk
%mem=8GB
%nprocshared=4
# B3LYP/6-311++G(d,p) empiricaldispersion=gd3bj scf=xqc pop=npa geom=check

CID_83243577_JID_8062_Energie_kation

1 2

--Link1--
%chk=JID_8062.chk
%mem=8GB
%nprocshared=4
# B3LYP/6-311++G(d,p) empiricaldispersion=gd3bj scf=xqc pop=npa geom=check

CID_83243577_JID_8062_Energie_anion

-1 2
