%chk=JID_10329.chk
%mem=8GB
%nprocshared=4
# opt freq B3LYP/6-31G(d) empiricaldispersion=gd3bj scf=xqc

CID_104608777_JID_10329_neutraal

0 1
C          1.06716       -0.07383        0.00619
C         -0.08240        0.09073       -0.98212
C         -0.06658       -0.94643       -2.10332
O         -1.33531        0.27339       -0.31505
C         -1.87120       -0.77864        0.40042
C         -2.64528       -0.44928        1.53177
C         -3.29563       -1.50043        2.18374
C         -3.17918       -2.79856        1.69453
C         -2.39650       -3.01021        0.57210
N         -1.74046       -2.03131       -0.08490
N         -2.67314        0.85022        2.08870
C         -1.43106        1.16604        2.80900
C         -1.06436        2.60794        2.77488
C         -1.14377        3.57968        1.79913
C         -0.58018        4.76389        2.35178
C         -0.19925        4.42307        3.63332
O         -0.48680        3.12309        3.89813
C         -0.40539        6.06666        1.76123
O          0.09778        7.03576        2.31077
O         -0.85255        6.16233        0.49021
H          0.96248       -0.99109        0.59465
H          1.08693        0.76162        0.71331
H          2.03038       -0.10769       -0.51261
H          0.08472        1.05497       -1.47948
H          0.06439       -1.96402       -1.72256
H         -0.99531       -0.91662       -2.68155
H          0.77326       -0.75998       -2.78156
H         -3.88911       -1.31798        3.07447
H         -3.68276       -3.62632        2.18135
H         -2.27697       -4.00631        0.15489
H         -3.47582        0.98364        2.69651
H         -1.55109        0.84685        3.85245
H         -0.57419        0.60539        2.41669
H         -1.55137        3.44154        0.80571
H          0.27245        4.97144        4.43783
H         -0.65995        7.09190        0.25282

--Link1--
%chk=JID_10329.chk
%mem=8GB
%nprocshared=4
# B3LYP/6-311++G(d,p) empiricaldispersion=gd3bj scf=xqc pop=npa geom=check

CID_104608777_JID_10329_Energie_neutraal

0 1

--Link1--
%chk=JID_10329.chk
%mem=8GB
%nprocshared=4
# B3LYP/6-311++G(d,p) empiricaldispersion=gd3bj scf=xqc pop=npa geom=check

CID_104608777_JID_10329_Energie_kation

1 2

--Link1--
%chk=JID_10329.chk
%mem=8GB
%nprocshared=4
# B3LYP/6-311++G(d,p) empiricaldispersion=gd3bj scf=xqc pop=npa geom=check

CID_104608777_JID_10329_Energie_anion

-1 2
