%chk=JID_7452.chk
%mem=8GB
%nprocshared=4
# opt freq B3LYP/6-31G(d) empiricaldispersion=gd3bj scf=xqc

CID_72183283_JID_7452_neutraal

0 1
C          0.95223       -0.07537       -0.04513
C          0.19928       -0.05440        1.29420
C          0.45223        1.29141        1.98135
C         -1.29002       -0.28675        1.01549
O          0.78217       -1.14148        2.05937
C          0.31888       -1.45504        3.29410
O         -0.61032       -0.89149        3.86018
N          0.96892       -2.49300        3.90062
C          2.06140       -3.16923        3.43458
C          2.87180       -3.09511        2.33126
C          3.84766       -4.11314        2.51998
N          3.61880       -4.76881        3.67013
O          2.50968       -4.17323        4.23591
C          4.97212       -4.45823        1.65126
O          5.76299       -5.37029        1.86656
O          5.04781       -3.63173        0.56099
C          6.14821       -3.91358       -0.30476
H          0.60770        0.71632       -0.71867
H          0.82293       -1.04030       -0.54928
H          2.03021        0.04853        0.11173
H          0.14989        2.12864        1.34326
H         -0.09865        1.37792        2.92288
H          1.51359        1.40759        2.22865
H         -1.46075       -1.29827        0.63057
H         -1.89810       -0.18607        1.91927
H         -1.67491        0.43391        0.28567
H          0.60586       -2.76196        4.80455
H          2.80444       -2.40828        1.50183
H          7.09680       -3.80770        0.23117
H          6.05196       -4.91642       -0.73219
H          6.13104       -3.18615       -1.12107

--Link1--
%chk=JID_7452.chk
%mem=8GB
%nprocshared=4
# B3LYP/6-311++G(d,p) empiricaldispersion=gd3bj scf=xqc pop=npa geom=check

CID_72183283_JID_7452_Energie_neutraal

0 1

--Link1--
%chk=JID_7452.chk
%mem=8GB
%nprocshared=4
# B3LYP/6-311++G(d,p) empiricaldispersion=gd3bj scf=xqc pop=npa geom=check

CID_72183283_JID_7452_Energie_kation

1 2

--Link1--
%chk=JID_7452.chk
%mem=8GB
%nprocshared=4
# B3LYP/6-311++G(d,p) empiricaldispersion=gd3bj scf=xqc pop=npa geom=check

CID_72183283_JID_7452_Energie_anion

-1 2
