%chk=JID_8094.chk
%mem=8GB
%nprocshared=4
# opt freq B3LYP/6-31G(d) empiricaldispersion=gd3bj scf=xqc

CID_97182136_JID_8094_neutraal

0 1
C         -2.13100       -0.04600       -0.06100
N         -0.69685       -0.08519        0.09189
C          0.14825       -1.07429       -0.32550
C          1.41665       -0.70994        0.09069
C          1.20651        0.53260        0.73878
N         -0.07021        0.92306        0.71750
C          2.66869       -1.42449       -0.04897
N          3.63426       -1.12507        0.76493
C          4.78466       -1.84618        0.62214
C          5.96112       -1.81095        1.33279
C          6.77286       -2.78032        0.73639
N          6.17689       -3.39488       -0.28312
N          4.93843       -2.83768       -0.36385
C          3.88955       -3.11737       -1.24954
C          2.72711       -2.44241       -1.13195
C          4.02780       -4.13517       -2.31130
O          4.96422       -4.88459       -2.50943
O          2.95757       -4.19408       -3.13212
H         -2.57622        0.28963        0.87915
H         -2.36829        0.65024       -0.86890
H         -2.49545       -1.04700       -0.30471
H         -0.22832       -1.94706       -0.83985
H          1.94312        1.16569        1.21884
H          6.18559       -1.16752        2.17048
H          7.78225       -3.06881        1.00165
H          1.87672       -2.58726       -1.78268
H          3.21409       -4.89443       -3.77120

--Link1--
%chk=JID_8094.chk
%mem=8GB
%nprocshared=4
# B3LYP/6-311++G(d,p) empiricaldispersion=gd3bj scf=xqc pop=npa geom=check

CID_97182136_JID_8094_Energie_neutraal

0 1

--Link1--
%chk=JID_8094.chk
%mem=8GB
%nprocshared=4
# B3LYP/6-311++G(d,p) empiricaldispersion=gd3bj scf=xqc pop=npa geom=check

CID_97182136_JID_8094_Energie_kation

1 2

--Link1--
%chk=JID_8094.chk
%mem=8GB
%nprocshared=4
# B3LYP/6-311++G(d,p) empiricaldispersion=gd3bj scf=xqc pop=npa geom=check

CID_97182136_JID_8094_Energie_anion

-1 2
