%chk=JID_8668.chk
%mem=8GB
%nprocshared=4
# opt freq B3LYP/6-31G(d) empiricaldispersion=gd3bj scf=xqc

CID_131938294_JID_8668_neutraal

0 1
C          1.04727        0.03967        0.07869
C          1.36891        1.08498        1.12525
S          1.48813        2.75845        0.48657
O          0.68334        2.90664       -0.70193
O          1.31222        3.66051        1.60619
N          3.09252        2.95998        0.06567
C          3.79714        2.02812       -0.81695
C          3.24269        1.95540       -2.19427
N          3.24665        0.89370       -2.97822
C          2.65852        1.29949       -4.15137
C          2.30313        2.63966       -4.09140
N          2.67564        3.03232       -2.83347
C          1.68904        3.31547       -5.14796
C          1.43166        2.58547       -6.31769
C          1.77566        1.23217       -6.39992
C          2.39120        0.57571       -5.32093
O          0.83723        3.31926       -7.31129
C          0.53472        2.63955       -8.52277
H          0.11660        0.27748       -0.44604
H          0.92381       -0.93916        0.55291
H          1.83709       -0.05239       -0.66780
H          0.56092        1.10840        1.86537
H          2.29484        0.86023        1.66242
H          3.63946        3.29616        0.85934
H          4.83525        2.37470       -0.89258
H          3.84815        1.03866       -0.35361
H          2.49436        3.93039       -2.40638
H          1.41665        4.36283       -5.07317
H          1.57909        0.64800       -7.29284
H          2.65640       -0.47365       -5.38206
H          1.44387        2.26244       -9.00268
H         -0.18757        1.83429       -8.35306
H          0.07465        3.36114       -9.20477

--Link1--
%chk=JID_8668.chk
%mem=8GB
%nprocshared=4
# B3LYP/6-311++G(d,p) empiricaldispersion=gd3bj scf=xqc pop=npa geom=check

CID_131938294_JID_8668_Energie_neutraal

0 1

--Link1--
%chk=JID_8668.chk
%mem=8GB
%nprocshared=4
# B3LYP/6-311++G(d,p) empiricaldispersion=gd3bj scf=xqc pop=npa geom=check

CID_131938294_JID_8668_Energie_kation

1 2

--Link1--
%chk=JID_8668.chk
%mem=8GB
%nprocshared=4
# B3LYP/6-311++G(d,p) empiricaldispersion=gd3bj scf=xqc pop=npa geom=check

CID_131938294_JID_8668_Energie_anion

-1 2
