%chk=JID_9983.chk
%mem=8GB
%nprocshared=4
# opt freq B3LYP/6-31G(d) empiricaldispersion=gd3bj scf=xqc

CID_117524500_JID_9983_neutraal

0 1
C          2.49200        0.00400       -0.01400
C          0.99760        0.11524        0.03295
C          0.24385       -0.76007        0.82138
C         -1.14928       -0.66254        0.84834
C         -1.80546        0.31211        0.09621
C         -1.06391        1.15182       -0.73240
C          0.33136        1.05593       -0.76040
O         -3.16728        0.33136        0.21629
C         -3.80108        1.61876        0.21471
C         -3.73163        2.30119        1.58144
C         -2.44255        3.01153        1.77045
N         -2.00096        4.09590        1.14825
C         -0.73429        4.23198        1.63665
C         -0.47030        3.24791        2.54982
O         -1.56069        2.45405        2.66986
C          0.80002        2.99988        3.25387
N          1.66180        4.21115        3.16918
C          1.66908        4.77730        1.79154
C          0.27628        5.24838        1.27824
H          2.88596       -0.37424        0.93519
H          2.79229       -0.67537       -0.81754
H          2.94981        0.98369       -0.18714
H          0.73407       -1.52086        1.42397
H         -1.72499       -1.33941        1.47382
H         -1.54038        1.88858       -1.36966
H          0.89383        1.72474       -1.40779
H         -3.46458        2.26090       -0.60586
H         -4.85742        1.40939        0.00650
H         -4.53636        3.04169        1.65509
H         -3.87917        1.56721        2.38169
H          1.32485        2.15284        2.79912
H          0.62476        2.75829        4.30683
H          1.26430        4.91125        3.79696
H          2.36179        5.62599        1.76643
H          2.07905        4.02245        1.10747
H          0.01285        6.20083        1.75206
H          0.30999        5.40189        0.19495

--Link1--
%chk=JID_9983.chk
%mem=8GB
%nprocshared=4
# B3LYP/6-311++G(d,p) empiricaldispersion=gd3bj scf=xqc pop=npa geom=check

CID_117524500_JID_9983_Energie_neutraal

0 1

--Link1--
%chk=JID_9983.chk
%mem=8GB
%nprocshared=4
# B3LYP/6-311++G(d,p) empiricaldispersion=gd3bj scf=xqc pop=npa geom=check

CID_117524500_JID_9983_Energie_kation

1 2

--Link1--
%chk=JID_9983.chk
%mem=8GB
%nprocshared=4
# B3LYP/6-311++G(d,p) empiricaldispersion=gd3bj scf=xqc pop=npa geom=check

CID_117524500_JID_9983_Energie_anion

-1 2
