%chk=JID_8885.chk
%mem=8GB
%nprocshared=4
# opt freq B3LYP/6-31G(d) empiricaldispersion=gd3bj scf=xqc

CID_150772446_JID_8885_neutraal

0 1
C          0.00000        0.00000        1.31300
C         -0.26362       -0.79743        0.04170
C         -1.67243       -0.26679       -0.31479
N         -1.55709        1.18603       -0.02468
C         -0.22359        1.33916        0.60581
C          0.83934        1.20749       -0.53132
N          0.70743       -0.21406       -0.89477
N          1.79220       -0.97588       -1.25534
N          2.65285       -0.41628       -1.97059
N          3.44506        0.09185       -2.61589
C         -2.70266        1.80236        0.63845
C         -3.07965        1.41314        2.08473
C         -2.24803        1.99548        3.20650
C         -1.86843        1.17997        4.28417
C         -1.12665        1.69744        5.34756
C         -0.76891        3.04258        5.35759
C         -1.16240        3.87146        4.31006
C         -1.90583        3.35423        3.24642
H          1.02179       -0.11581        1.69171
H         -0.70872       -0.23059        2.10988
H         -0.18792       -1.88429        0.11502
H         -2.42673       -0.75914        0.30802
H         -1.91772       -0.42692       -1.36951
H         -0.08852        2.24622        1.19704
H          0.63196        1.83676       -1.40146
H          1.84407        1.40069       -0.13988
H         -2.58465        2.88941        0.56450
H         -3.57909        1.58377        0.01296
H         -4.11120        1.74728        2.26236
H         -3.11139        0.32072        2.16986
H         -2.14681        0.12833        4.30256
H         -0.83376        1.05074        6.17050
H         -0.19378        3.44717        6.18605
H         -0.89699        4.92547        4.32346
H         -2.21534        4.03080        2.45401

--Link1--
%chk=JID_8885.chk
%mem=8GB
%nprocshared=4
# B3LYP/6-311++G(d,p) empiricaldispersion=gd3bj scf=xqc pop=npa geom=check

CID_150772446_JID_8885_Energie_neutraal

0 1

--Link1--
%chk=JID_8885.chk
%mem=8GB
%nprocshared=4
# B3LYP/6-311++G(d,p) empiricaldispersion=gd3bj scf=xqc pop=npa geom=check

CID_150772446_JID_8885_Energie_kation

1 2

--Link1--
%chk=JID_8885.chk
%mem=8GB
%nprocshared=4
# B3LYP/6-311++G(d,p) empiricaldispersion=gd3bj scf=xqc pop=npa geom=check

CID_150772446_JID_8885_Energie_anion

-1 2
