%chk=JID_2412.chk
%mem=8GB
%nprocshared=4
# opt freq B3LYP/6-31G(d) empiricaldispersion=gd3bj scf=xqc

CID_123496613_JID_2412_neutraal

0 1
O       -1.4116 1.3615  0.2189
O       -0.6799 -1.3360 1.3698
O       -2.9737 -0.7625 -1.3647
O       1.2615  2.0242  -0.1530
C       -0.4893 0.3961  -0.3182
C       -1.0516 -0.9743 0.0458
C       -2.5415 -0.7204 -0.0096
C       0.9058  0.6893  0.2034
C       -2.6522 0.6987  0.5211
C       1.9402  -0.2938 -0.3595
C       3.3455  -0.0361 0.1916
C       4.3468  -1.0467 -0.3457
H       -0.5196 0.5398  -1.4063
H       -0.7082 -1.7499 -0.6460
H       -3.1403 -1.4267 0.5730
H       0.9054  0.6578  1.2998
H       -3.4721 1.2681  0.0739
H       -2.7614 0.7062  1.6104
H       1.9733  -0.2005 -1.4525
H       1.6539  -1.3252 -0.1262
H       3.3314  -0.0896 1.2863
H       3.6869  0.9679  -0.0828
H       -1.1076 -2.1859 1.5701
H       -3.9184 -0.5322 -1.3763
H       2.0237  2.2852  0.3906
H       4.4067  -0.9974 -1.4376
H       4.0661  -2.0661 -0.0623
H       5.3436  -0.8445 0.0587

--Link1--
%chk=JID_2412.chk
%mem=8GB
%nprocshared=4
# B3LYP/6-311++G(d,p) empiricaldispersion=gd3bj scf=xqc pop=npa geom=check

CID_123496613_JID_2412_Energie_neutraal

0 1

--Link1--
%chk=JID_2412.chk
%mem=8GB
%nprocshared=4
# B3LYP/6-311++G(d,p) empiricaldispersion=gd3bj scf=xqc pop=npa geom=check

CID_123496613_JID_2412_Energie_kation

1 2

--Link1--
%chk=JID_2412.chk
%mem=8GB
%nprocshared=4
# B3LYP/6-311++G(d,p) empiricaldispersion=gd3bj scf=xqc pop=npa geom=check

CID_123496613_JID_2412_Energie_anion

-1 2
