%chk=JID_4598.chk
%mem=8GB
%nprocshared=4
# opt freq B3LYP/6-31G(d) empiricaldispersion=gd3bj scf=xqc

CID_100924903_JID_4598_neutraal

0 1
C          0.96114       -0.06804       -0.06213
C          0.73842       -0.43011       -1.52200
C          1.12707       -1.87128       -1.86064
C          0.37081       -2.96167       -1.09112
C         -1.15471       -2.93896       -1.24403
C         -1.62327       -3.09975       -2.64520
C         -2.22330       -2.22730       -3.46187
C         -2.57594       -2.76143       -4.82280
C         -2.10496       -4.22005       -4.78431
C         -1.54065       -4.36194       -3.39998
O         -1.07056       -5.39353       -2.94467
C         -1.91008       -1.93617       -5.93329
C         -2.28460       -2.38540       -7.34297
O         -3.68005       -2.24052       -7.56136
H          0.29418       -0.63123        0.59712
H          0.76063        0.99661        0.09543
H          1.99477       -0.26588        0.23865
H         -0.30646       -0.24089       -1.78927
H          1.34180        0.24312       -2.14303
H          0.99332       -2.02527       -2.93824
H          2.20009       -2.00039       -1.66983
H          0.75351       -3.93697       -1.41791
H          0.61561       -2.89055       -0.02457
H         -1.57997       -3.74676       -0.63526
H         -1.55364       -2.00966       -0.82046
H         -2.45100       -1.20707       -3.17471
H         -3.66597       -2.72633       -4.93854
H         -2.94552       -4.90912       -4.91011
H         -1.32267       -4.44171       -5.51556
H         -2.21155       -0.88696       -5.81435
H         -0.81829       -1.96890       -5.82667
H         -1.76952       -1.75474       -8.07458
H         -1.99651       -3.42250       -7.54013
H         -4.12128       -3.04444       -7.23875

--Link1--
%chk=JID_4598.chk
%mem=8GB
%nprocshared=4
# B3LYP/6-311++G(d,p) empiricaldispersion=gd3bj scf=xqc pop=npa geom=check

CID_100924903_JID_4598_Energie_neutraal

0 1

--Link1--
%chk=JID_4598.chk
%mem=8GB
%nprocshared=4
# B3LYP/6-311++G(d,p) empiricaldispersion=gd3bj scf=xqc pop=npa geom=check

CID_100924903_JID_4598_Energie_kation

1 2

--Link1--
%chk=JID_4598.chk
%mem=8GB
%nprocshared=4
# B3LYP/6-311++G(d,p) empiricaldispersion=gd3bj scf=xqc pop=npa geom=check

CID_100924903_JID_4598_Energie_anion

-1 2
