%chk=JID_3699.chk
%mem=8GB
%nprocshared=4
# opt freq B3LYP/6-31G(d) empiricaldispersion=gd3bj scf=xqc

CID_91505696_JID_3699_neutraal

0 1
C          0.90884       -0.03458        0.02225
C          0.57190       -1.10863       -1.02166
C          0.91971       -2.48423       -0.42921
C         -0.89972       -1.05690       -1.50741
N         -1.16160        0.15189       -2.25149
C         -2.35974        0.53709       -2.84758
C         -2.43196        1.81723       -3.41987
C         -3.57434        2.25450       -4.09780
C         -4.66681        1.40644       -4.23614
C         -4.60910        0.12290       -3.70419
C         -3.46197       -0.30857       -3.02787
O         -1.11464       -2.13679       -2.37682
O         -1.77012       -1.12257       -0.41230
H          0.29011       -0.13778        0.91984
H          0.76853        0.97507       -0.37369
H          1.95728       -0.11437        0.33064
H          1.23009       -0.96080       -1.88889
H          0.29146       -2.71672        0.43719
H          0.78975       -3.28115       -1.16841
H          1.96545       -2.51238       -0.10390
H         -0.65711        0.94767       -1.87634
H         -1.58453        2.49559       -3.34877
H         -3.60282        3.25351       -4.52490
H         -5.55509        1.73934       -4.76630
H         -5.45348       -0.55217       -3.82030
H         -3.46396       -1.32556       -2.64129
H         -1.24443       -1.68989       -3.22829
H         -2.49313       -0.52630       -0.64972

--Link1--
%chk=JID_3699.chk
%mem=8GB
%nprocshared=4
# B3LYP/6-311++G(d,p) empiricaldispersion=gd3bj scf=xqc pop=npa geom=check

CID_91505696_JID_3699_Energie_neutraal

0 1

--Link1--
%chk=JID_3699.chk
%mem=8GB
%nprocshared=4
# B3LYP/6-311++G(d,p) empiricaldispersion=gd3bj scf=xqc pop=npa geom=check

CID_91505696_JID_3699_Energie_kation

1 2

--Link1--
%chk=JID_3699.chk
%mem=8GB
%nprocshared=4
# B3LYP/6-311++G(d,p) empiricaldispersion=gd3bj scf=xqc pop=npa geom=check

CID_91505696_JID_3699_Energie_anion

-1 2
