%chk=JID_10037.chk
%mem=8GB
%nprocshared=4
# opt freq B3LYP/6-31G(d) empiricaldispersion=gd3bj scf=xqc

CID_65295596_JID_10037_neutraal

0 1
C          2.43800        0.00000        0.03800
N          0.99907        0.00717       -0.22945
C          0.39093        1.23785        0.30589
C         -1.15305        1.25167        0.21648
N         -1.83760        0.06440        0.74055
C         -1.17794       -1.16774        0.29400
C          0.36715       -1.18109        0.36914
C         -2.23610        0.11540        2.14869
C         -1.14022        0.17038        3.19196
C         -0.58603       -1.02326        3.69848
C          0.50188       -0.95451        4.58640
C          0.96305        0.29468        4.97606
C          0.40538        1.49797        4.55683
C         -0.66033        1.40947        3.65307
O          2.03159        0.16758        5.80792
C          2.27739       -1.17272        5.95566
C          1.34346       -1.89469        5.23351
C          3.38184       -1.62192        6.75945
O          3.71371       -2.77778        6.98280
O          4.09277       -0.59790        7.28144
H          2.91989        0.86065       -0.43905
H          2.66543        0.02875        1.11007
H          2.90206       -0.89645       -0.38811
H          0.70222        1.39271        1.34287
H          0.76775        2.09588       -0.26485
H         -1.42139        1.33360       -0.84581
H         -1.54354        2.16594        0.67967
H         -1.45671       -1.31534       -0.75843
H         -1.58175       -2.04145        0.81993
H          0.72113       -2.07463       -0.16029
H          0.68451       -1.29202        1.40942
H         -2.89952        0.97893        2.29419
H         -2.88230       -0.74584        2.36679
H         -0.95961       -1.98892        3.36925
H          0.79703        2.44967        4.89448
H         -1.10328        2.33238        3.28124
H          1.29996       -2.97315        5.16715
H          4.80356       -1.04243        7.78433

--Link1--
%chk=JID_10037.chk
%mem=8GB
%nprocshared=4
# B3LYP/6-311++G(d,p) empiricaldispersion=gd3bj scf=xqc pop=npa geom=check

CID_65295596_JID_10037_Energie_neutraal

0 1

--Link1--
%chk=JID_10037.chk
%mem=8GB
%nprocshared=4
# B3LYP/6-311++G(d,p) empiricaldispersion=gd3bj scf=xqc pop=npa geom=check

CID_65295596_JID_10037_Energie_kation

1 2

--Link1--
%chk=JID_10037.chk
%mem=8GB
%nprocshared=4
# B3LYP/6-311++G(d,p) empiricaldispersion=gd3bj scf=xqc pop=npa geom=check

CID_65295596_JID_10037_Energie_anion

-1 2
