%chk=JID_9005.chk
%mem=8GB
%nprocshared=4
# opt freq B3LYP/6-31G(d) empiricaldispersion=gd3bj scf=xqc

CID_79934454_JID_9005_neutraal

0 1
C          0.98960       -0.09945        0.00089
C          0.93038       -1.53713       -0.49667
C          0.67472       -2.56366        0.61719
C         -0.67265       -2.40668        1.37185
C         -1.86024       -2.54025        0.41041
N         -0.82860       -3.26886        2.57535
C          0.19066       -2.95121        3.58317
C         -0.88810       -4.72269        2.33703
C         -2.31637       -5.29397        2.20871
C         -2.32452       -6.82464        2.04067
C         -3.80744       -7.16698        2.34825
O         -4.27414       -6.15070        3.26493
C         -3.27665       -5.10788        3.40169
C         -2.65126       -5.29715        4.78780
C         -4.03061       -3.77777        3.35714
C         -3.97202       -8.51558        3.05025
C         -4.73672       -7.09527        1.13049
N         -1.73973       -7.22128        0.75277
C         -1.52611       -8.65353        0.62551
H          0.01210        0.24539        0.34977
H          1.30241        0.56509       -0.81098
H          1.70849        0.00450        0.81961
H          0.17670       -1.62493       -1.28614
H          1.89256       -1.77813       -0.96554
H          0.73400       -3.56156        0.16682
H          1.51322       -2.49099        1.31832
H         -0.72641       -1.37706        1.74792
H         -1.82099       -3.47500       -0.15764
H         -2.81222       -2.49175        0.94810
H         -1.87463       -1.71618       -0.31045
H         -0.06525       -3.40421        4.54622
H          1.18596       -3.31276        3.30426
H          0.24694       -1.87166        3.76176
H         -0.29690       -4.99551        1.45639
H         -0.40141       -5.25446        3.16624
H         -2.79039       -4.86739        1.31704
H         -1.69134       -7.24297        2.83518
H         -1.97182       -4.48329        5.04786
H         -3.43136       -5.33849        5.55756
H         -2.10651       -6.24365        4.86250
H         -4.80474       -3.74446        4.13283
H         -3.36869       -2.92001        3.50161
H         -4.55542       -3.65866        2.40247
H         -5.00937       -8.65883        3.37507
H         -3.69671       -9.35737        2.41086
H         -3.36220       -8.55716        3.95996
H         -4.67496       -6.11986        0.63616
H         -4.51235       -7.87324        0.39490
H         -5.78288       -7.21217        1.43766
H         -2.31730       -6.88699       -0.01787
H         -2.46743       -9.20183        0.54057
H         -0.95187       -8.85129       -0.28518
H         -0.94942       -9.05150        1.46637

--Link1--
%chk=JID_9005.chk
%mem=8GB
%nprocshared=4
# B3LYP/6-311++G(d,p) empiricaldispersion=gd3bj scf=xqc pop=npa geom=check

CID_79934454_JID_9005_Energie_neutraal

0 1

--Link1--
%chk=JID_9005.chk
%mem=8GB
%nprocshared=4
# B3LYP/6-311++G(d,p) empiricaldispersion=gd3bj scf=xqc pop=npa geom=check

CID_79934454_JID_9005_Energie_kation

1 2

--Link1--
%chk=JID_9005.chk
%mem=8GB
%nprocshared=4
# B3LYP/6-311++G(d,p) empiricaldispersion=gd3bj scf=xqc pop=npa geom=check

CID_79934454_JID_9005_Energie_anion

-1 2
