%chk=JID_9338.chk
%mem=8GB
%nprocshared=4
# opt freq B3LYP/6-31G(d) empiricaldispersion=gd3bj scf=xqc

CID_61013304_JID_9338_neutraal

0 1
C          1.05100        0.08058       -0.03010
C          1.58541       -1.34272       -0.10749
C          2.16173       -1.85179        1.21778
N          1.13723       -2.22540        2.20137
C          0.56726       -3.56746        2.04100
C          1.04113       -4.62159        3.03255
O          0.60682       -5.76076        3.10516
O          2.04599       -4.23119        3.83913
C          0.77789       -1.28404        3.15455
O          1.23036       -0.13480        3.07027
C         -0.06012       -1.65805        4.40349
C         -1.43667       -2.29578        4.22486
C         -2.39174       -1.36555        3.49512
N         -2.53178       -0.08640        4.18375
C         -1.29229        0.57332        4.60556
C         -0.29424       -0.38966        5.26020
C         -3.71383        0.61738        3.95128
O         -4.66943        0.13206        3.34400
C         -3.79919        2.02184        4.49214
H          0.17413        0.14104        0.62114
H          0.74709        0.42134       -1.02516
H          1.81468        0.76969        0.34364
H          0.79255       -2.00860       -0.46662
H          2.38391       -1.36238       -0.85881
H          2.77626       -2.74130        1.03084
H          2.83968       -1.10275        1.64309
H         -0.51808       -3.49437        2.05020
H          0.83814       -3.94105        1.04614
H          2.25330       -5.02417        4.37674
H          0.56748       -2.33672        4.99379
H         -1.40315       -3.26988        3.74290
H         -1.85240       -2.50480        5.22149
H         -2.04413       -1.16181        2.47549
H         -3.36862       -1.85529        3.41372
H         -1.51518        1.37426        5.31606
H         -0.86776        1.05046        3.71568
H         -0.68743       -0.69199        6.24006
H          0.64754        0.13568        5.45922
H         -3.66510        2.01918        5.57672
H         -3.05408        2.65927        4.00946
H         -4.79044        2.43175        4.27427

--Link1--
%chk=JID_9338.chk
%mem=8GB
%nprocshared=4
# B3LYP/6-311++G(d,p) empiricaldispersion=gd3bj scf=xqc pop=npa geom=check

CID_61013304_JID_9338_Energie_neutraal

0 1

--Link1--
%chk=JID_9338.chk
%mem=8GB
%nprocshared=4
# B3LYP/6-311++G(d,p) empiricaldispersion=gd3bj scf=xqc pop=npa geom=check

CID_61013304_JID_9338_Energie_kation

1 2

--Link1--
%chk=JID_9338.chk
%mem=8GB
%nprocshared=4
# B3LYP/6-311++G(d,p) empiricaldispersion=gd3bj scf=xqc pop=npa geom=check

CID_61013304_JID_9338_Energie_anion

-1 2
