%chk=JID_5064.chk
%mem=8GB
%nprocshared=4
# opt freq B3LYP/6-31G(d) empiricaldispersion=gd3bj scf=xqc

CID_116847370_JID_5064_neutraal

0 1
C          2.49200        0.00400       -0.01400
C          1.06227        0.26880       -0.40892
C          0.20863       -0.84010       -0.56792
C         -1.11948       -0.67514       -0.95136
C         -1.61131        0.59993       -1.18850
C         -0.76928        1.70438       -1.04787
C          0.58408        1.57832       -0.66631
C          1.45277        2.84335       -0.53960
C          2.69386        2.92718       -1.43891
C          1.52402        3.80042       -1.73508
C          1.58221        3.43173        0.84844
O          2.52673        3.12209        1.57299
N          0.63833        4.34325        1.29184
N         -0.45174        4.78738        0.52932
C         -1.68647        4.73743        1.30438
H          2.84459        0.72829        0.72306
H          2.59624       -0.98365        0.44896
H          3.13869        0.03297       -0.89573
H          0.58158       -1.84653       -0.38840
H         -1.76579       -1.54106       -1.06403
H         -2.64660        0.74060       -1.48578
H         -1.17563        2.69538       -1.24142
H          3.58654        3.38409       -1.02563
H          2.89858        2.12000       -2.13230
H          0.93621        3.57461       -2.61723
H          1.62911        4.86169       -1.54234
H          0.78827        4.68433        2.23780
H         -0.27286        5.75028        0.23396
H         -1.63256        5.39109        2.18141
H         -2.52193        5.07276        0.68228
H         -1.90451        3.71635        1.63382

--Link1--
%chk=JID_5064.chk
%mem=8GB
%nprocshared=4
# B3LYP/6-311++G(d,p) empiricaldispersion=gd3bj scf=xqc pop=npa geom=check

CID_116847370_JID_5064_Energie_neutraal

0 1

--Link1--
%chk=JID_5064.chk
%mem=8GB
%nprocshared=4
# B3LYP/6-311++G(d,p) empiricaldispersion=gd3bj scf=xqc pop=npa geom=check

CID_116847370_JID_5064_Energie_kation

1 2

--Link1--
%chk=JID_5064.chk
%mem=8GB
%nprocshared=4
# B3LYP/6-311++G(d,p) empiricaldispersion=gd3bj scf=xqc pop=npa geom=check

CID_116847370_JID_5064_Energie_anion

-1 2
