%chk=JID_9070.chk
%mem=8GB
%nprocshared=4
# opt freq B3LYP/6-31G(d) empiricaldispersion=gd3bj scf=xqc

CID_23462967_JID_9070_neutraal

0 1
C          1.05317       -0.01489        0.08337
C          0.58537        1.25677        0.77775
N          0.81462        2.41909       -0.08304
C          0.24765        3.60755        0.47645
N         -0.97015        3.72877        1.02815
C         -1.32488        4.97432        1.46571
C         -0.47908        6.11059        1.38026
C          0.79147        5.93950        0.81427
C          1.12250        4.67524        0.37883
C          2.34784        4.15294       -0.20186
O          3.30925        4.81656       -0.53695
N          2.17544        2.78556       -0.31394
C         -0.88344        7.43566        1.85371
C         -0.85368        7.77295        3.20652
N         -1.21878        8.97767        3.70531
C         -1.62780        9.90348        2.81269
C         -1.68960        9.67945        1.44776
C         -1.31080        8.42866        0.96536
C         -2.70781        5.07539        2.05159
H          0.55129       -0.14172       -0.88169
H          0.82981       -0.88877        0.70338
H          2.13263        0.00254       -0.09833
H         -0.48482        1.14442        0.99156
H          1.10884        1.36919        1.73587
H          1.50095        6.75597        0.72458
H          2.70848        2.27010       -1.00598
H         -0.52300        7.05814        3.95651
H         -1.91302       10.86220        3.23660
H         -2.02476       10.46012        0.77402
H         -1.35366        8.23202       -0.10365
H         -3.23160        4.11674        1.97286
H         -2.65631        5.34022        3.11182
H         -3.30023        5.82163        1.51338

--Link1--
%chk=JID_9070.chk
%mem=8GB
%nprocshared=4
# B3LYP/6-311++G(d,p) empiricaldispersion=gd3bj scf=xqc pop=npa geom=check

CID_23462967_JID_9070_Energie_neutraal

0 1

--Link1--
%chk=JID_9070.chk
%mem=8GB
%nprocshared=4
# B3LYP/6-311++G(d,p) empiricaldispersion=gd3bj scf=xqc pop=npa geom=check

CID_23462967_JID_9070_Energie_kation

1 2

--Link1--
%chk=JID_9070.chk
%mem=8GB
%nprocshared=4
# B3LYP/6-311++G(d,p) empiricaldispersion=gd3bj scf=xqc pop=npa geom=check

CID_23462967_JID_9070_Energie_anion

-1 2
