%chk=JID_9564.chk
%mem=8GB
%nprocshared=4
# opt freq B3LYP/6-31G(d) empiricaldispersion=gd3bj scf=xqc

CID_80122543_JID_9564_neutraal

0 1
C          0.93155        0.06753       -0.02745
C          0.47571       -1.40539        0.13541
C          1.30390       -1.97813        1.31259
C         -1.00196       -1.31999        0.52548
O         -1.85428       -0.64714       -0.03425
O         -1.35339       -2.06324        1.58997
C          0.66507       -2.24100       -1.19892
C         -0.15931       -1.71981       -2.39523
C          2.14536       -2.16461       -1.68851
N          0.42872       -3.68828       -1.00200
C         -0.68644       -4.33383       -0.52428
N         -0.41017       -5.24845        0.37273
N         -1.50272       -5.87660        0.86426
C         -2.82492       -5.68127        0.53423
N         -3.56538       -6.48382        1.26511
N         -2.68036       -7.18464        2.05443
N         -1.42532       -6.82089        1.81424
C         -3.10126       -4.73552       -0.46707
C         -2.07819       -4.06504       -1.01409
H          0.68428        0.65369        0.86683
H          0.43604        0.56027       -0.87021
H          2.01332        0.14939       -0.17356
H          1.11655       -1.41328        2.23452
H          1.05463       -3.02162        1.52772
H          2.37995       -1.92359        1.12171
H         -2.30246       -1.86454        1.73581
H          0.20217       -0.74379       -2.73765
H         -0.09014       -2.40669       -3.24778
H         -1.21878       -1.59651       -2.17345
H          2.84868       -2.54121       -0.93911
H          2.28952       -2.78277       -2.58425
H          2.44171       -1.14486       -1.95360
H          1.23799       -4.12911       -0.56097
H         -4.12424       -4.58652       -0.79187
H         -2.23895       -3.36672       -1.81974

--Link1--
%chk=JID_9564.chk
%mem=8GB
%nprocshared=4
# B3LYP/6-311++G(d,p) empiricaldispersion=gd3bj scf=xqc pop=npa geom=check

CID_80122543_JID_9564_Energie_neutraal

0 1

--Link1--
%chk=JID_9564.chk
%mem=8GB
%nprocshared=4
# B3LYP/6-311++G(d,p) empiricaldispersion=gd3bj scf=xqc pop=npa geom=check

CID_80122543_JID_9564_Energie_kation

1 2

--Link1--
%chk=JID_9564.chk
%mem=8GB
%nprocshared=4
# B3LYP/6-311++G(d,p) empiricaldispersion=gd3bj scf=xqc pop=npa geom=check

CID_80122543_JID_9564_Energie_anion

-1 2
