%chk=JID_8096.chk
%mem=8GB
%nprocshared=4
# opt freq B3LYP/6-31G(d) empiricaldispersion=gd3bj scf=xqc

CID_110910246_JID_8096_neutraal

0 1
C          0.92553        0.05766       -0.03361
C          0.52463        1.40911       -0.61450
C          0.58201        1.49080       -2.15744
C         -0.24544        0.40002       -2.86918
C         -1.73672        0.41768       -2.57058
C          0.15728        2.90129       -2.64216
N          1.15958        3.91856       -2.30912
C          1.31998        5.06859       -3.00642
O          1.50091        6.12445       -2.40805
N          1.26678        5.04491       -4.35435
C          1.91162        4.04730       -5.18687
C          1.12202        3.88787       -6.43704
C          0.32307        2.83355       -6.83094
N         -0.30484        2.97734       -8.05165
C          0.02094        4.13611       -8.58264
S          1.11038        5.09320       -7.65948
C         -0.48560        4.63547       -9.88950
O          1.94776        1.28388       -2.56480
H          0.21585       -0.72672       -0.31143
H          0.94146        0.11248        1.05993
H          1.92366       -0.24055       -0.36843
H         -0.47959        1.66496       -0.25703
H          1.21058        2.15087       -0.18669
H         -0.10343        0.49673       -3.95420
H          0.15959       -0.59144       -2.63100
H         -2.19407        1.36637       -2.86576
H         -2.23687       -0.37875       -3.13149
H         -1.93707        0.24975       -1.50879
H         -0.01354        2.89876       -3.72095
H         -0.78534        3.21455       -2.17859
H          1.20896        4.14202       -1.32115
H          1.33818        5.98522       -4.72173
H          2.92332        4.40916       -5.40470
H          2.02786        3.09759       -4.65943
H          0.15575        1.92875       -6.25869
H         -0.98547        5.60217       -9.77089
H          0.33385        4.74774      -10.60624
H         -1.21073        3.93262      -10.31220
H          2.42134        2.10971       -2.34604

--Link1--
%chk=JID_8096.chk
%mem=8GB
%nprocshared=4
# B3LYP/6-311++G(d,p) empiricaldispersion=gd3bj scf=xqc pop=npa geom=check

CID_110910246_JID_8096_Energie_neutraal

0 1

--Link1--
%chk=JID_8096.chk
%mem=8GB
%nprocshared=4
# B3LYP/6-311++G(d,p) empiricaldispersion=gd3bj scf=xqc pop=npa geom=check

CID_110910246_JID_8096_Energie_kation

1 2

--Link1--
%chk=JID_8096.chk
%mem=8GB
%nprocshared=4
# B3LYP/6-311++G(d,p) empiricaldispersion=gd3bj scf=xqc pop=npa geom=check

CID_110910246_JID_8096_Energie_anion

-1 2
