%chk=JID_2555.chk
%mem=8GB
%nprocshared=4
# opt freq B3LYP/6-31G(d) empiricaldispersion=gd3bj scf=xqc

CID_144316642_JID_2555_neutraal

0 1
C          0.94526       -0.00580        0.08348
C          1.40926       -1.52389       -0.26337
C          1.17789        1.60854        1.92553
C          0.49391        1.47519        0.41136
C          1.27972        2.36066       -0.77004
C          1.22256        1.96872       -2.26244
C         -0.04957        2.26760       -3.10899
C         -0.77390        3.54695       -2.66644
C          0.39386        2.45975       -4.57941
C         -1.02809        1.08256       -3.09641
C         -1.02609        1.47519        0.41136
N         -2.28705        1.47518        0.41137
H          0.47107       -0.40619        1.01829
H          0.33574       -0.02028       -0.85327
H          2.02702        0.27715        0.06222
H          2.07157       -1.90386        0.52258
H          0.53351       -2.17890       -0.33444
H          1.94390       -1.54506       -1.21968
H          2.20067        1.21592        1.93814
H          1.24505        2.65467        2.25784
H          0.57332        1.06585        2.66159
H          0.19855        2.52364        0.69625
H          1.01114        3.42646       -0.69628
H          2.34319        2.34308       -0.48503
H          2.04375        2.54403       -2.71688
H          1.52932        0.92556       -2.40056
H         -0.09649        4.40808       -2.67736
H         -1.61050        3.77849       -3.33604
H         -1.18767        3.45477       -1.65867
H          0.92450        1.57578       -4.95100
H         -0.46663        2.63282       -5.23618
H          1.06336        3.32138       -4.68304
H         -0.53652        0.15876       -3.42174
H         -1.44876        0.90299       -2.10899
H         -1.87190        1.26090       -3.77352

--Link1--
%chk=JID_2555.chk
%mem=8GB
%nprocshared=4
# B3LYP/6-311++G(d,p) empiricaldispersion=gd3bj scf=xqc pop=npa geom=check

CID_144316642_JID_2555_Energie_neutraal

0 1

--Link1--
%chk=JID_2555.chk
%mem=8GB
%nprocshared=4
# B3LYP/6-311++G(d,p) empiricaldispersion=gd3bj scf=xqc pop=npa geom=check

CID_144316642_JID_2555_Energie_kation

1 2

--Link1--
%chk=JID_2555.chk
%mem=8GB
%nprocshared=4
# B3LYP/6-311++G(d,p) empiricaldispersion=gd3bj scf=xqc pop=npa geom=check

CID_144316642_JID_2555_Energie_anion

-1 2
