%chk=JID_8292.chk
%mem=8GB
%nprocshared=4
# opt freq B3LYP/6-31G(d) empiricaldispersion=gd3bj scf=xqc

CID_113444313_JID_8292_neutraal

0 1
C         -2.13100       -0.04600       -0.06100
N         -0.69138       -0.04042        0.06386
C          0.14055       -1.12238        0.22723
C          1.41529       -0.59550        0.28905
C          1.24480        0.79571        0.18071
N         -0.03700        1.14249        0.06593
C         -0.30843       -2.47783        0.26560
N         -1.26937       -2.93464       -0.51065
C         -1.37689       -4.26991       -0.22695
C         -0.48971       -4.64032        0.77940
N          0.16622       -3.47030        1.09456
C          1.13684       -3.31147        2.15094
C         -0.40400       -5.95425        1.26297
C         -1.25657       -6.91015        0.68534
C         -2.15131       -6.55522       -0.33111
C         -2.22173       -5.23474       -0.79576
C         -1.20677       -8.26787        1.14727
N         -1.16167       -9.36345        1.52759
H         -2.51331        0.96091        0.12799
H         -2.38480       -0.35598       -1.07741
H         -2.55247       -0.73338        0.67634
H          2.34653       -1.13540        0.37549
H          2.00015        1.57110        0.17895
H          1.00590       -4.10105        2.89457
H          2.13508       -3.37238        1.71144
H          0.98519       -2.34719        2.64232
H          0.29340       -6.22670        2.04962
H         -2.80578       -7.30418       -0.77480
H         -2.91201       -4.95391       -1.58446

--Link1--
%chk=JID_8292.chk
%mem=8GB
%nprocshared=4
# B3LYP/6-311++G(d,p) empiricaldispersion=gd3bj scf=xqc pop=npa geom=check

CID_113444313_JID_8292_Energie_neutraal

0 1

--Link1--
%chk=JID_8292.chk
%mem=8GB
%nprocshared=4
# B3LYP/6-311++G(d,p) empiricaldispersion=gd3bj scf=xqc pop=npa geom=check

CID_113444313_JID_8292_Energie_kation

1 2

--Link1--
%chk=JID_8292.chk
%mem=8GB
%nprocshared=4
# B3LYP/6-311++G(d,p) empiricaldispersion=gd3bj scf=xqc pop=npa geom=check

CID_113444313_JID_8292_Energie_anion

-1 2
