%chk=JID_5313.chk
%mem=8GB
%nprocshared=4
# opt freq B3LYP/6-31G(d) empiricaldispersion=gd3bj scf=xqc

CID_61771959_JID_5313_neutraal

0 1
C          1.06167        0.05349       -0.05775
C          0.68756       -1.39519        0.19446
O          1.25931       -1.91303        1.39195
C          2.68050       -2.06273        1.39248
C          3.17343       -3.09718        0.41072
C          2.97195       -4.46450        0.62983
C          3.43886       -5.41202       -0.28137
C          4.08261       -4.99725       -1.44741
C          4.28101       -3.63318       -1.70687
C          3.82729       -2.69359       -0.76699
C          4.97562       -3.17184       -2.97028
C          6.45005       -3.54980       -3.00215
O          4.33173       -3.72962       -4.11448
O          2.37939       -4.88138        1.79240
C          1.04238       -5.31685        1.54365
H          0.88516        0.66068        0.83583
H          0.47447        0.46238       -0.88541
H          2.11959        0.15540       -0.31604
H         -0.39885       -1.45704        0.32004
H          0.93814       -2.02562       -0.66453
H          3.16346       -1.09275        1.23079
H          2.97488       -2.36623        2.40420
H          3.31201       -6.47183       -0.08078
H          4.43708       -5.74567       -2.15420
H          3.98279       -1.63195       -0.95197
H          4.88830       -2.08331       -3.06442
H          6.58684       -4.63696       -3.00892
H          6.91801       -3.17283       -3.91822
H          6.98746       -3.13922       -2.14127
H          3.39088       -3.83638       -3.89196
H          0.52182       -5.36539        2.50473
H          0.49466       -4.62149        0.89720
H          1.04206       -6.32029        1.10571

--Link1--
%chk=JID_5313.chk
%mem=8GB
%nprocshared=4
# B3LYP/6-311++G(d,p) empiricaldispersion=gd3bj scf=xqc pop=npa geom=check

CID_61771959_JID_5313_Energie_neutraal

0 1

--Link1--
%chk=JID_5313.chk
%mem=8GB
%nprocshared=4
# B3LYP/6-311++G(d,p) empiricaldispersion=gd3bj scf=xqc pop=npa geom=check

CID_61771959_JID_5313_Energie_kation

1 2

--Link1--
%chk=JID_5313.chk
%mem=8GB
%nprocshared=4
# B3LYP/6-311++G(d,p) empiricaldispersion=gd3bj scf=xqc pop=npa geom=check

CID_61771959_JID_5313_Energie_anion

-1 2
