%chk=JID_9667.chk
%mem=8GB
%nprocshared=4
# opt freq B3LYP/6-31G(d) empiricaldispersion=gd3bj scf=xqc

CID_82752884_JID_9667_neutraal

0 1
C          0.92674       -0.01056        0.06724
C         -0.09638        1.04496       -0.32293
N          0.51651        1.99027       -1.25064
C         -0.37807        2.91956       -1.79526
C         -1.09919        3.79651       -1.00805
C         -1.95754        4.67993       -1.63150
N         -2.06677        4.66973       -2.97279
C         -1.31574        3.79925       -3.66777
N         -0.46137        2.91872       -3.12779
C         -1.40776        3.84696       -5.16016
N         -2.71080        5.61049       -0.94401
C         -4.01004        5.96390       -1.55141
C         -4.93222        6.25041       -0.35315
C         -3.93840        6.75055        0.67474
C         -2.78602        5.74723        0.50727
C         -1.56799        6.33285        1.21211
C         -1.88691        6.50744        2.70648
C         -3.17450        7.30451        2.96835
C         -4.36629        6.82277        2.12854
H          1.27584       -0.56373       -0.81117
H          0.48787       -0.72575        0.76973
H          1.80017        0.44718        0.54372
H         -0.96033        0.55323       -0.78659
H         -0.43649        1.55435        0.58566
H          0.89594        1.51448       -2.07031
H         -0.97843        3.77558        0.06286
H         -0.63200        4.50874       -5.55602
H         -1.27103        2.84799       -5.58540
H         -2.38603        4.22221       -5.47596
H         -4.44630        5.16263       -2.15964
H         -3.88978        6.85990       -2.17095
H         -5.41801        5.32728       -0.01492
H         -5.70821        6.98194       -0.59545
H         -3.61481        7.75488        0.35844
H         -3.05801        4.77954        0.95298
H         -1.29622        7.30173        0.77429
H         -0.68840        5.69166        1.10662
H         -1.04475        6.99979        3.20593
H         -1.98886        5.51517        3.16401
H         -3.42904        7.25452        4.03304
H         -2.98434        8.36082        2.73910
H         -4.69756        5.83983        2.48420
H         -5.20893        7.51267        2.24750

--Link1--
%chk=JID_9667.chk
%mem=8GB
%nprocshared=4
# B3LYP/6-311++G(d,p) empiricaldispersion=gd3bj scf=xqc pop=npa geom=check

CID_82752884_JID_9667_Energie_neutraal

0 1

--Link1--
%chk=JID_9667.chk
%mem=8GB
%nprocshared=4
# B3LYP/6-311++G(d,p) empiricaldispersion=gd3bj scf=xqc pop=npa geom=check

CID_82752884_JID_9667_Energie_kation

1 2

--Link1--
%chk=JID_9667.chk
%mem=8GB
%nprocshared=4
# B3LYP/6-311++G(d,p) empiricaldispersion=gd3bj scf=xqc pop=npa geom=check

CID_82752884_JID_9667_Energie_anion

-1 2
