%chk=JID_10022.chk
%mem=8GB
%nprocshared=4
# opt freq B3LYP/6-31G(d) empiricaldispersion=gd3bj scf=xqc

CID_114709908_JID_10022_neutraal

0 1
C          2.44200       -0.09800       -0.00700
C          0.94354       -0.06357        0.01642
N          0.35431        1.10254        0.36817
C         -0.99811        1.13716        0.37896
C         -1.81483        0.05936        0.05377
C         -1.17785       -1.13374       -0.29796
C          0.21339       -1.19786       -0.32188
C         -3.31882        0.18729        0.12217
C         -3.85608       -0.39970        1.42358
C         -5.35808       -0.12149        1.49181
C         -6.02522       -0.44251        0.17397
C         -5.25027       -0.60225       -0.98269
O         -3.88600       -0.49090       -1.00860
C         -5.84879       -0.91330       -2.20233
C         -7.23504       -1.02410       -2.29106
C         -8.03353       -0.82213       -1.16567
C         -7.42807       -0.52619        0.05909
O         -9.37684       -0.93903       -1.39305
C        -10.24272       -0.73630       -0.28395
N         -5.90248       -0.87447        2.62463
H          2.79891       -0.28994       -1.02358
H          2.85914        0.85745        0.32712
H          2.81382       -0.88255        0.65939
H         -1.41655        2.09708        0.67063
H         -1.76091       -2.01376       -0.55968
H          0.71387       -2.11924       -0.60100
H         -3.58213        1.25118        0.03614
H         -3.66979       -1.48355        1.44308
H         -3.34994        0.03348        2.29583
H         -5.50726        0.94847        1.68583
H         -5.23603       -1.05613       -3.08844
H         -7.69664       -1.25827       -3.24709
H         -8.03537       -0.35270        0.94022
H        -10.06242       -1.48058        0.49871
H        -10.14947        0.28169        0.10851
H        -11.27125       -0.86472       -0.63473
H         -6.87782       -0.63104        2.77371
H         -5.88280       -1.87020        2.40342

--Link1--
%chk=JID_10022.chk
%mem=8GB
%nprocshared=4
# B3LYP/6-311++G(d,p) empiricaldispersion=gd3bj scf=xqc pop=npa geom=check

CID_114709908_JID_10022_Energie_neutraal

0 1

--Link1--
%chk=JID_10022.chk
%mem=8GB
%nprocshared=4
# B3LYP/6-311++G(d,p) empiricaldispersion=gd3bj scf=xqc pop=npa geom=check

CID_114709908_JID_10022_Energie_kation

1 2

--Link1--
%chk=JID_10022.chk
%mem=8GB
%nprocshared=4
# B3LYP/6-311++G(d,p) empiricaldispersion=gd3bj scf=xqc pop=npa geom=check

CID_114709908_JID_10022_Energie_anion

-1 2
