%chk=JID_8551.chk
%mem=8GB
%nprocshared=4
# opt freq B3LYP/6-31G(d) empiricaldispersion=gd3bj scf=xqc

CID_114191628_JID_8551_neutraal

0 1
C          0.98946        0.02851       -0.09527
C          0.11552       -1.18678       -0.36920
C          0.69963       -2.54178        0.06632
N          0.49644       -2.91549        1.47376
C          0.49329       -4.35379        1.67823
C          1.82367       -5.02528        1.39934
C          2.98767       -4.51092        2.23313
C          4.21235       -3.43679        1.26747
C          4.79760       -1.96118        2.46068
C          3.62730       -2.22617        4.26888
C          2.55902       -3.84898        3.94998
C          1.28785       -2.18340        2.46742
C          2.96101       -2.23094        2.54765
C          4.54612       -3.52485        3.36762
C          5.86908       -2.57938        4.36631
C          5.74240       -0.88043        4.39334
C          4.36865       -0.00504        3.93911
N          3.20958       -0.43033        2.92587
H          0.87588        0.39704        0.92596
H          0.69147        0.85173       -0.75398
H          2.04603       -0.18393       -0.28380
H         -0.88010       -1.03895        0.06544
H         -0.03452       -1.23639       -1.45610
H          0.17322       -3.28135       -0.55348
H          1.74755       -2.60935       -0.23496
H          0.15152       -4.58797        2.69324
H         -0.27035       -4.81000        1.03411
H          1.69251       -6.09429        1.61434
H          2.07883       -4.97119        0.33489
H          3.58002       -5.42117        2.44173
H          5.08424       -4.03530        0.95547
H          3.78167       -3.07033        0.32492
H          4.75709       -1.05075        1.82026
H          5.89543       -2.12154        2.40757
H          2.79870       -1.55021        4.57687
H          4.06966       -2.39288        5.26788
H          1.49950       -3.70981        4.14719
H          2.80093       -4.61428        4.71011
H          1.04790       -1.14497        2.23287
H          0.80586       -2.20730        3.45137
H          3.02782       -1.95791        1.47581
H          5.26631       -4.10911        2.74799
H          4.41876       -4.31552        4.14004
H          5.86698       -2.98096        5.39154
H          6.85030       -2.87096        3.96068
H          5.99174       -0.57049        5.41654
H          6.56425       -0.50582        3.76581
H          3.86257        0.27073        4.87590
H          4.74208        0.94637        3.53849
H          2.31946       -0.09088        3.29491

--Link1--
%chk=JID_8551.chk
%mem=8GB
%nprocshared=4
# B3LYP/6-311++G(d,p) empiricaldispersion=gd3bj scf=xqc pop=npa geom=check

CID_114191628_JID_8551_Energie_neutraal

0 1

--Link1--
%chk=JID_8551.chk
%mem=8GB
%nprocshared=4
# B3LYP/6-311++G(d,p) empiricaldispersion=gd3bj scf=xqc pop=npa geom=check

CID_114191628_JID_8551_Energie_kation

1 2

--Link1--
%chk=JID_8551.chk
%mem=8GB
%nprocshared=4
# B3LYP/6-311++G(d,p) empiricaldispersion=gd3bj scf=xqc pop=npa geom=check

CID_114191628_JID_8551_Energie_anion

-1 2
