%chk=JID_7254.chk
%mem=8GB
%nprocshared=4
# opt freq B3LYP/6-31G(d) empiricaldispersion=gd3bj scf=xqc

CID_65839869_JID_7254_neutraal

0 1
C          1.01412        0.07423        0.06550
C          0.42415       -0.78701       -1.04658
N          0.65181       -2.23177       -0.79655
C         -0.30023       -3.11507       -1.55053
C          0.11863       -3.47075       -2.99118
C          0.96441       -4.73624       -3.12452
C          0.35489       -5.91370       -2.37859
C          0.10229       -5.58444       -0.91231
C         -0.79699       -4.34909       -0.75079
C         -1.09743       -4.09030        0.73632
N         -2.07285       -3.02034        0.93859
C          2.02171       -2.54532       -0.91888
N          2.74254       -2.04073       -1.93809
C          4.04897       -2.34531       -1.97274
N          4.71202       -3.09178       -1.08122
C          3.96910       -3.55470       -0.06437
C          2.62164       -3.30578        0.06705
H          0.64316       -0.24500        1.04527
H          0.73281        1.12192       -0.08131
H          2.10717        0.02394        0.08549
H         -0.65468       -0.58713       -1.05065
H          0.79635       -0.47105       -2.02903
H         -1.20915       -2.50966       -1.68191
H         -0.80163       -3.64028       -3.56807
H          0.61922       -2.62872       -3.48188
H          1.98101       -4.56638       -2.75980
H          1.06219       -4.99211       -4.18627
H          1.02255       -6.77985       -2.45082
H         -0.58940       -6.20121       -2.85724
H          1.05571       -5.44693       -0.39622
H         -0.37724       -6.45042       -0.43882
H         -1.75721       -4.63156       -1.21209
H         -1.50610       -5.00403        1.18359
H         -0.18447       -3.85331        1.29016
H         -2.25709       -2.92660        1.93710
H         -1.63162       -2.14071        0.66370
H          4.62138       -1.94711       -2.80299
H          4.50330       -4.14588        0.67306
H          2.06823       -3.67474        0.91733

--Link1--
%chk=JID_7254.chk
%mem=8GB
%nprocshared=4
# B3LYP/6-311++G(d,p) empiricaldispersion=gd3bj scf=xqc pop=npa geom=check

CID_65839869_JID_7254_Energie_neutraal

0 1

--Link1--
%chk=JID_7254.chk
%mem=8GB
%nprocshared=4
# B3LYP/6-311++G(d,p) empiricaldispersion=gd3bj scf=xqc pop=npa geom=check

CID_65839869_JID_7254_Energie_kation

1 2

--Link1--
%chk=JID_7254.chk
%mem=8GB
%nprocshared=4
# B3LYP/6-311++G(d,p) empiricaldispersion=gd3bj scf=xqc pop=npa geom=check

CID_65839869_JID_7254_Energie_anion

-1 2
