%chk=JID_2579.chk
%mem=8GB
%nprocshared=4
# opt freq B3LYP/6-31G(d) empiricaldispersion=gd3bj scf=xqc

CID_135014810_JID_2579_neutraal

0 1
C          1.06236       -0.07716       -0.01255
C          0.55648        0.35010       -1.40441
C          1.15786       -0.63495       -2.43848
C         -0.99334        0.21980       -1.50924
C         -1.82493        0.96189       -0.49851
C         -2.78072        1.84485       -0.81632
C          1.07690        1.77063       -1.77530
C          0.77220        2.88297       -0.80978
C          1.69178        3.47038       -0.02650
C          1.39416        4.58222        0.93158
O          1.85131        4.23560        2.23704
C          0.95477        3.36989        2.92192
H          0.74804       -1.10077        0.22142
H          0.68611        0.57040        0.78423
H          2.15720       -0.04950        0.03249
H          0.84172       -1.66496       -2.23723
H          0.84124       -0.38143       -3.45661
H          2.25350       -0.61698       -2.41568
H         -1.30276        0.50811       -2.52326
H         -1.26258       -0.84097       -1.40886
H         -1.65527        0.73310        0.55125
H         -3.36266        2.33562       -0.04210
H         -3.00637        2.09677       -1.84794
H          2.16582        1.71994       -1.91677
H          0.67110        2.06025       -2.75392
H         -0.25481        3.23666       -0.77865
H          2.72674        3.13833       -0.05644
H          1.95557        5.46864        0.61813
H          0.33338        4.85798        0.95312
H         -0.04098        3.81813        2.99241
H          0.89660        2.39727        2.42608
H          1.33714        3.21499        3.93457

--Link1--
%chk=JID_2579.chk
%mem=8GB
%nprocshared=4
# B3LYP/6-311++G(d,p) empiricaldispersion=gd3bj scf=xqc pop=npa geom=check

CID_135014810_JID_2579_Energie_neutraal

0 1

--Link1--
%chk=JID_2579.chk
%mem=8GB
%nprocshared=4
# B3LYP/6-311++G(d,p) empiricaldispersion=gd3bj scf=xqc pop=npa geom=check

CID_135014810_JID_2579_Energie_kation

1 2

--Link1--
%chk=JID_2579.chk
%mem=8GB
%nprocshared=4
# B3LYP/6-311++G(d,p) empiricaldispersion=gd3bj scf=xqc pop=npa geom=check

CID_135014810_JID_2579_Energie_anion

-1 2
