%chk=JID_6879.chk
%mem=8GB
%nprocshared=4
# opt freq B3LYP/6-31G(d) empiricaldispersion=gd3bj scf=xqc

CID_68614329_JID_6879_neutraal

0 1
C          2.49200        0.00400       -0.01400
C          0.99165       -0.08744       -0.07298
C          0.31973       -1.31277       -0.22602
C         -1.07932       -1.33151       -0.29253
C         -1.81444       -0.14760       -0.19414
C         -1.16835        1.08393       -0.03277
C          0.23497        1.09499        0.02784
C         -1.94077        2.33489        0.07306
C         -2.75569        2.53750        1.20464
C         -3.48210        3.71676        1.37169
C         -3.39373        4.72209        0.41643
C         -2.59554        4.53911       -0.71329
C         -1.90620        3.33593       -0.92660
N         -1.03405        3.25446       -2.03148
S          1.18391       -2.87417       -0.36259
C          1.11177       -3.37517        1.37634
H          2.87612       -0.54796        0.84962
H          2.93657       -0.39113       -0.93301
H          2.82716        1.04196        0.08756
H         -1.61156       -2.27068       -0.42640
H         -2.90003       -0.19102       -0.25433
H          0.74383        2.05166        0.14951
H         -2.80855        1.77363        1.97821
H         -4.09698        3.85639        2.25673
H         -3.93364        5.65503        0.55410
H         -2.51459        5.34776       -1.43517
H         -0.81794        2.29471       -2.29098
H         -1.33823        3.80428       -2.82800
H          1.60979       -2.63661        2.01047
H          0.07415       -3.49053        1.70136
H          1.62153       -4.33497        1.49478

--Link1--
%chk=JID_6879.chk
%mem=8GB
%nprocshared=4
# B3LYP/6-311++G(d,p) empiricaldispersion=gd3bj scf=xqc pop=npa geom=check

CID_68614329_JID_6879_Energie_neutraal

0 1

--Link1--
%chk=JID_6879.chk
%mem=8GB
%nprocshared=4
# B3LYP/6-311++G(d,p) empiricaldispersion=gd3bj scf=xqc pop=npa geom=check

CID_68614329_JID_6879_Energie_kation

1 2

--Link1--
%chk=JID_6879.chk
%mem=8GB
%nprocshared=4
# B3LYP/6-311++G(d,p) empiricaldispersion=gd3bj scf=xqc pop=npa geom=check

CID_68614329_JID_6879_Energie_anion

-1 2
