%chk=JID_2894.chk
%mem=8GB
%nprocshared=4
# opt freq B3LYP/6-31G(d) empiricaldispersion=gd3bj scf=xqc

CID_21895745_JID_2894_neutraal

0 1
C          0.93086       -0.06448        0.03260
C          0.78029        1.25004       -0.72013
C          1.05665        1.10960       -2.21516
N          0.07234        0.27385       -2.87984
C         -0.86717        0.61774       -3.80425
O         -1.49128       -0.24825       -4.40999
C         -1.09576        2.05600       -4.09294
C         -1.61483        2.84454       -3.13916
C         -0.81011        2.49339       -5.49197
C          2.56366       -3.63874        0.55292
N          1.63064       -4.34968        1.41536
C          0.44782       -3.54360        1.68437
H          0.19943       -0.80448       -0.30609
H          0.77497        0.09450        1.10432
H          1.93327       -0.48152       -0.10537
H         -0.22802        1.64380       -0.55318
H          1.48509        1.97601       -0.29842
H          1.09562        2.09726       -2.68277
H          2.03230        0.63808       -2.37708
H          0.16113       -0.72960       -2.77792
H         -1.83261        3.89000       -3.33062
H         -1.86007        2.45853       -2.15481
H          0.24699        2.33716       -5.73069
H         -1.41450        1.92588       -6.20701
H         -1.03105        3.55593       -5.63805
H          2.91675       -2.71754        1.02754
H          2.11146       -3.39354       -0.41367
H          3.43922       -4.26794        0.36527
H          1.34799       -5.21820        0.96159
H         -0.09359       -3.30529        0.76307
H         -0.23063       -4.09887        2.33940
H          0.71133       -2.61263        2.19666

--Link1--
%chk=JID_2894.chk
%mem=8GB
%nprocshared=4
# B3LYP/6-311++G(d,p) empiricaldispersion=gd3bj scf=xqc pop=npa geom=check

CID_21895745_JID_2894_Energie_neutraal

0 1

--Link1--
%chk=JID_2894.chk
%mem=8GB
%nprocshared=4
# B3LYP/6-311++G(d,p) empiricaldispersion=gd3bj scf=xqc pop=npa geom=check

CID_21895745_JID_2894_Energie_kation

1 2

--Link1--
%chk=JID_2894.chk
%mem=8GB
%nprocshared=4
# B3LYP/6-311++G(d,p) empiricaldispersion=gd3bj scf=xqc pop=npa geom=check

CID_21895745_JID_2894_Energie_anion

-1 2
