%chk=JID_8123.chk
%mem=8GB
%nprocshared=4
# opt=(cartesian,calcfc) freq B3LYP/6-31G(d) empiricaldispersion=gd3bj scf=xqc

CID_107045562_JID_8123_neutraal

0 1
6	-3.851172	 -2.058208	 -0.779056
6	-3.430348	 -0.626996	 -1.110834
6	-2.653788	 0.051386	 0.031713
6	-1.400310	 -0.706634	 0.373976
6	-0.251360	 -0.789547	 -0.400424
7	0.654940	 -1.601500	 0.251338
6	0.103829	 -2.037317	 1.435377
6	-1.162144	 -1.507881	 1.535547
6	1.991612	 -1.901679	 -0.222822
6	2.889496	 -0.701305	 -0.225074
6	2.677039	 0.573520	 0.288241
7	3.834577	 1.230262	 0.012115
7	4.708427	 0.425225	 -0.631509
7	4.136085	 -0.737082	 -0.775047
6	4.206375	 2.598196	 0.318175
7	-2.284937	 1.428528	 -0.347823
6	-3.378315	 2.395555	 -0.485181
6	-4.238715	 2.605568	 0.769956
1	-2.985470	 -2.692802	 -0.551696
1	-4.395186	 -2.501010	 -1.616308
1	-4.514497	 -2.085868	 0.093659
1	-2.806967	 -0.614957	 -2.013335
1	-4.317781	 -0.026889	 -1.352279
1	-3.298667	 0.016055	 0.932789
1	-0.002528	 -0.328660	 -1.337789
1	0.667713	 -2.667438	 2.113975
1	-1.855934	 -1.681262	 2.350690
1	2.412220	 -2.683166	 0.422062
1	1.946803	 -2.324089	 -1.231812
1	1.835627	 1.019768	 0.784508
1	5.183910	 2.770100	 -0.133071
1	3.474474	 3.285827	 -0.113251
1	4.261704	 2.750284	 1.397768
1	-1.622277	 1.767459	 0.345508
1	-2.951105	 3.360715	 -0.790894
1	-3.998041	 2.069054	 -1.327971
1	-3.612643	 2.919546	 1.613959
1	-5.010466	 3.374425	 0.617521
1	-4.767721	 1.686936	 1.054895

--Link1--
%chk=JID_8123.chk
%mem=8GB
%nprocshared=4
# B3LYP/6-311++G(d,p) empiricaldispersion=gd3bj scf=xqc pop=npa geom=check

CID_107045562_JID_8123_Energie_neutraal

0 1

--Link1--
%chk=JID_8123.chk
%mem=8GB
%nprocshared=4
# B3LYP/6-311++G(d,p) empiricaldispersion=gd3bj scf=xqc pop=npa geom=check

CID_107045562_JID_8123_Energie_kation

1 2

--Link1--
%chk=JID_8123.chk
%mem=8GB
%nprocshared=4
# B3LYP/6-311++G(d,p) empiricaldispersion=gd3bj scf=xqc pop=npa geom=check

CID_107045562_JID_8123_Energie_anion

-1 2
