%chk=JID_6321.chk
%mem=8GB
%nprocshared=4
# opt freq B3LYP/6-31G(d) empiricaldispersion=gd3bj scf=xqc

CID_64382110_JID_6321_neutraal

0 1
C         -0.91700        1.47200       -0.56500
C         -2.34268        0.97209       -0.34555
N         -2.46620       -0.44399       -0.70495
C         -2.03309       -1.30020        0.39876
C         -0.51115       -1.47088        0.37201
C          0.33012       -0.30510        0.84085
C          1.43626       -0.61195        1.66254
C          2.34446        0.36628        2.06101
C          2.16882        1.67542        1.64010
C          1.08469        1.99907        0.82534
C          0.14805        1.02582        0.41575
C         -3.78816       -0.78252       -1.23716
C         -3.89624       -0.43700       -2.74373
C         -2.74725       -1.01533       -3.60463
N         -2.79705       -2.48773       -3.65928
O         -5.13334       -0.96139       -3.25079
H         -0.57717        1.20670       -1.57540
H         -0.96835        2.56933       -0.55023
H         -2.98305        1.57853       -0.99838
H         -2.68526        1.17159        0.67811
H         -2.38781       -0.94437        1.37435
H         -2.45032       -2.30742        0.27097
H         -0.17938       -1.74830       -0.63781
H         -0.28975       -2.34196        1.00402
H          1.61387       -1.63818        1.98050
H          3.19607        0.09948        2.68042
H          2.88312        2.44186        1.92716
H          0.98814        3.02868        0.48457
H         -3.99116       -1.85669       -1.13596
H         -4.59351       -0.29207       -0.67461
H         -3.92632        0.64967       -2.87773
H         -2.86177       -0.65198       -4.63202
H         -1.76581       -0.68505       -3.24868
H         -2.04546       -2.80795       -4.27241
H         -2.54687       -2.84353       -2.73390
H         -4.89874       -1.85651       -3.57638

--Link1--
%chk=JID_6321.chk
%mem=8GB
%nprocshared=4
# B3LYP/6-311++G(d,p) empiricaldispersion=gd3bj scf=xqc pop=npa geom=check

CID_64382110_JID_6321_Energie_neutraal

0 1

--Link1--
%chk=JID_6321.chk
%mem=8GB
%nprocshared=4
# B3LYP/6-311++G(d,p) empiricaldispersion=gd3bj scf=xqc pop=npa geom=check

CID_64382110_JID_6321_Energie_kation

1 2

--Link1--
%chk=JID_6321.chk
%mem=8GB
%nprocshared=4
# B3LYP/6-311++G(d,p) empiricaldispersion=gd3bj scf=xqc pop=npa geom=check

CID_64382110_JID_6321_Energie_anion

-1 2
