%chk=JID_9160.chk
%mem=8GB
%nprocshared=4
# opt freq B3LYP/6-31G(d) empiricaldispersion=gd3bj scf=xqc

CID_105766299_JID_9160_neutraal

0 1
C          1.08317       -0.03477       -0.04328
C          0.22726       -1.16780       -0.60036
C          1.01207       -2.33879       -1.18895
C          1.68988       -3.23321       -0.13203
C          0.62648       -3.59921        0.92164
C         -0.13494       -2.38184        1.43178
O         -0.71678       -1.64287        0.36452
N          2.97145       -2.74911        0.43338
C          3.60511       -3.43564        1.55755
N          5.04695       -3.42502        1.27163
C          5.24366       -2.33764        0.30274
C          3.92495       -2.08819       -0.32816
O          3.79573       -1.47328       -1.37194
C          6.54068       -2.20866       -0.44094
C          6.18159       -1.21000        0.62493
C          3.34704       -2.71144        2.89375
C          3.64763       -3.54058        4.16133
C          5.12511       -3.88935        4.33531
C          3.15893       -2.77522        5.39625
H          0.44078        0.76200        0.34752
H          1.72335        0.39022       -0.82230
H          1.71853       -0.35199        0.78720
H         -0.37434       -0.73738       -1.41035
H          0.28082       -2.97756       -1.70680
H          1.69004       -2.00053       -1.97386
H          1.97552       -4.16223       -0.64512
H          1.04014       -4.16455        1.76110
H         -0.10080       -4.26340        0.43457
H          0.48932       -1.72050        2.03638
H         -0.95347       -2.71494        2.07881
H          3.25411       -4.47274        1.59672
H          5.26367       -4.30314        0.80134
H          7.33708       -2.90986       -0.22494
H          6.50699       -1.87730       -1.47306
H          5.90622       -0.21073        0.30712
H          6.72386       -1.24698        1.56182
H          3.90188       -1.76332        2.92824
H          2.29390       -2.42229        2.93830
H          3.07904       -4.47766        4.10667
H          5.75622       -2.99696        4.26771
H          5.30322       -4.35363        5.31163
H          5.45595       -4.60869        3.58104
H          2.08817       -2.55718        5.32214
H          3.31400       -3.36345        6.30696
H          3.69199       -1.82515        5.51065

--Link1--
%chk=JID_9160.chk
%mem=8GB
%nprocshared=4
# B3LYP/6-311++G(d,p) empiricaldispersion=gd3bj scf=xqc pop=npa geom=check

CID_105766299_JID_9160_Energie_neutraal

0 1

--Link1--
%chk=JID_9160.chk
%mem=8GB
%nprocshared=4
# B3LYP/6-311++G(d,p) empiricaldispersion=gd3bj scf=xqc pop=npa geom=check

CID_105766299_JID_9160_Energie_kation

1 2

--Link1--
%chk=JID_9160.chk
%mem=8GB
%nprocshared=4
# B3LYP/6-311++G(d,p) empiricaldispersion=gd3bj scf=xqc pop=npa geom=check

CID_105766299_JID_9160_Energie_anion

-1 2
