%chk=JID_1634.chk
%mem=8GB
%nprocshared=4
# opt freq B3LYP/6-31G(d) empiricaldispersion=gd3bj scf=xqc

CID_154694576_JID_1634_neutraal

0 1
C          1.08064        0.01145        0.05801
C          2.10626       -0.69407       -0.79946
C         -1.87698        0.59988        2.74537
C         -1.60271       -0.82959        3.18639
C         -0.21953       -1.02364        3.80850
C         -0.02071       -0.24959        5.10226
C         -2.35056       -0.80102       -2.00366
C         -1.91459        0.52494       -2.60948
N         -0.84837        0.29314       -3.58049
C         -0.40042        1.51958       -4.23779
C          0.47853        2.39200       -3.35214
H          0.30025       -0.68648        0.37465
H          0.60943        0.82734       -0.49675
H          1.55124        0.43220        0.95148
H          2.58682       -1.50055       -0.23762
H          1.63489       -1.12703       -1.68645
H          2.88012        0.00622       -1.12755
H         -1.92606        1.28028        3.60057
H         -2.83795        0.65375        2.22366
H         -1.10089        0.95815        2.06238
H         -2.37686       -1.14544        3.89543
H         -1.68626       -1.48680        2.31257
H         -0.07774       -2.09127        4.01457
H          0.55660       -0.73481        3.09106
H         -0.79926       -0.49508        5.83128
H          0.94891       -0.50057        5.54437
H         -0.03537        0.83049        4.92910
H         -2.72564       -1.48381       -2.77359
H         -3.15357       -0.63765       -1.27770
H         -1.52175       -1.29284       -1.48353
H         -2.77773        0.99110       -3.09783
H         -1.58056        1.18686       -1.80403
H         -0.05888       -0.16504       -3.12691
H          0.18401        1.22847       -5.11814
H         -1.25420        2.09518       -4.61379
H          1.34486        1.83380       -2.98191
H          0.85227        3.24760       -3.92414
H         -0.07278        2.78374       -2.49215

--Link1--
%chk=JID_1634.chk
%mem=8GB
%nprocshared=4
# B3LYP/6-311++G(d,p) empiricaldispersion=gd3bj scf=xqc pop=npa geom=check

CID_154694576_JID_1634_Energie_neutraal

0 1

--Link1--
%chk=JID_1634.chk
%mem=8GB
%nprocshared=4
# B3LYP/6-311++G(d,p) empiricaldispersion=gd3bj scf=xqc pop=npa geom=check

CID_154694576_JID_1634_Energie_kation

1 2

--Link1--
%chk=JID_1634.chk
%mem=8GB
%nprocshared=4
# B3LYP/6-311++G(d,p) empiricaldispersion=gd3bj scf=xqc pop=npa geom=check

CID_154694576_JID_1634_Energie_anion

-1 2
