%chk=JID_6367.chk
%mem=8GB
%nprocshared=4
# opt freq B3LYP/6-31G(d) empiricaldispersion=gd3bj scf=xqc

CID_80303297_JID_6367_neutraal

0 1
C         -2.55700       -0.42200       -0.01100
C         -1.30811        0.23517        0.44969
C         -0.99100        0.58047        1.74882
S          0.55251        1.31866        1.80521
C          0.68915        1.13522        0.10262
N         -0.33283        0.54157       -0.48586
C          1.90383        1.61064       -0.62217
C          1.51861        2.80115       -1.46998
O          1.23395        3.88816       -0.96119
C          1.58062        2.70258       -2.95645
C          2.09391        3.83651       -3.61534
C          2.25863        3.84511       -4.99861
C          1.92299        2.71611       -5.73403
C          1.39317        1.59630       -5.08821
C          1.15193        1.58847       -3.70313
N          0.68254        0.39217       -3.13894
H         -3.40053       -0.16363        0.63686
H         -2.80490       -0.10834       -1.02994
H         -2.43474       -1.50938       -0.00483
H         -1.57855        0.44148        2.64491
H          2.69524        1.93699        0.06313
H          2.34231        0.80736       -1.22003
H          2.38231        4.71682       -3.04265
H          2.66339        4.72346       -5.49457
H          2.07290        2.70136       -6.81062
H          1.15122        0.72040       -5.68662
H          0.14491        0.50242       -2.27018
H          0.16018       -0.19194       -3.78491

--Link1--
%chk=JID_6367.chk
%mem=8GB
%nprocshared=4
# B3LYP/6-311++G(d,p) empiricaldispersion=gd3bj scf=xqc pop=npa geom=check

CID_80303297_JID_6367_Energie_neutraal

0 1

--Link1--
%chk=JID_6367.chk
%mem=8GB
%nprocshared=4
# B3LYP/6-311++G(d,p) empiricaldispersion=gd3bj scf=xqc pop=npa geom=check

CID_80303297_JID_6367_Energie_kation

1 2

--Link1--
%chk=JID_6367.chk
%mem=8GB
%nprocshared=4
# B3LYP/6-311++G(d,p) empiricaldispersion=gd3bj scf=xqc pop=npa geom=check

CID_80303297_JID_6367_Energie_anion

-1 2
