%chk=JID_3593.chk
%mem=8GB
%nprocshared=4
# opt freq B3LYP/6-31G(d) empiricaldispersion=gd3bj scf=xqc

CID_23174459_JID_3593_neutraal

0 1
C          1.05590        0.05598       -0.06117
C          0.21277        0.93739       -0.94122
O         -1.01543        0.87758       -0.92439
N          0.82827        1.85069       -1.74235
C          2.24475        2.08984       -1.89815
C          2.88516        2.79236       -0.69316
C          2.86215        4.30535       -1.00279
C          2.74694        4.30238       -2.50757
C          2.41947        3.09624       -2.98643
C          1.67197        5.01830       -0.36001
C          4.15609        4.98476       -0.55897
O          4.80480        5.81225       -1.17834
O          4.53097        4.64025        0.69176
H          0.51787       -0.87904        0.12296
H          1.23347        0.55756        0.89316
H          2.00776       -0.20222       -0.52814
H          0.17743        2.41708       -2.27434
H          2.75355        1.14943       -2.12956
H          2.38929        2.56120        0.25545
H          3.92156        2.43747       -0.60020
H          2.90562        5.18373       -3.11757
H          2.28088        2.87059       -4.03550
H          1.71510        4.94666        0.73295
H          1.66470        6.08457       -0.61477
H          0.71527        4.59245       -0.68238
H          5.33631        5.17700        0.85102

--Link1--
%chk=JID_3593.chk
%mem=8GB
%nprocshared=4
# B3LYP/6-311++G(d,p) empiricaldispersion=gd3bj scf=xqc pop=npa geom=check

CID_23174459_JID_3593_Energie_neutraal

0 1

--Link1--
%chk=JID_3593.chk
%mem=8GB
%nprocshared=4
# B3LYP/6-311++G(d,p) empiricaldispersion=gd3bj scf=xqc pop=npa geom=check

CID_23174459_JID_3593_Energie_kation

1 2

--Link1--
%chk=JID_3593.chk
%mem=8GB
%nprocshared=4
# B3LYP/6-311++G(d,p) empiricaldispersion=gd3bj scf=xqc pop=npa geom=check

CID_23174459_JID_3593_Energie_anion

-1 2
