%chk=JID_8683.chk
%mem=8GB
%nprocshared=4
# opt freq B3LYP/6-31G(d) empiricaldispersion=gd3bj scf=xqc

CID_103785080_JID_8683_neutraal

0 1
C          1.00602        0.07072       -0.07045
C          0.68980        1.48851       -0.57070
C         -0.63746        2.03290       -0.00286
C         -0.59505        2.60164        1.43713
C          0.62704        3.52549        1.62070
C          1.93962        2.91446        1.12571
C          1.83379        2.50991       -0.35439
N          3.09508        1.96559       -0.84367
C          3.80684        2.60000       -1.96004
C          2.96374        2.86998       -3.22798
C          2.26613        4.22927       -3.30261
C          3.15821        5.38677       -2.86989
C          3.86617        5.12570       -1.54344
C          4.68371        3.83126       -1.60841
C          5.55208        3.66265       -0.35494
O          6.46018        2.57646       -0.49366
C         -0.58628        1.48308        2.49511
C         -1.87933        3.42855        1.66755
H          1.73396       -0.41205       -0.73233
H          0.10836       -0.55631       -0.07241
H          1.43352        0.05738        0.93323
H          0.53592        1.38769       -1.65501
H         -0.95364        2.84216       -0.67747
H         -1.42005        1.26717       -0.08357
H          0.73568        3.80672        2.67574
H          0.46127        4.46272        1.07184
H          2.22173        2.06163        1.75280
H          2.73099        3.66250        1.25164
H          1.56680        3.41898       -0.88992
H          3.71788        1.73856       -0.07287
H          4.51172        1.81580       -2.27073
H          3.64351        2.80877       -4.08989
H          2.23107        2.06872       -3.38226
H          1.34955        4.22888       -2.70682
H          1.93489        4.40225       -4.33424
H          2.56100        6.30281       -2.79487
H          3.91105        5.56800       -3.64757
H          3.13836        5.09096       -0.72679
H          4.52950        5.97323       -1.33095
H          5.39079        3.93821       -2.44579
H          6.15628        4.56200       -0.19453
H          4.95852        3.51004        0.55028
H          5.94457        1.75820       -0.59113
H         -0.72416        1.89712        3.50116
H         -1.39821        0.76826        2.32097
H          0.35123        0.92649        2.51735
H         -1.95888        4.25129        0.94790
H         -2.77446        2.80535        1.55992
H         -1.89455        3.86722        2.67177

--Link1--
%chk=JID_8683.chk
%mem=8GB
%nprocshared=4
# B3LYP/6-311++G(d,p) empiricaldispersion=gd3bj scf=xqc pop=npa geom=check

CID_103785080_JID_8683_Energie_neutraal

0 1

--Link1--
%chk=JID_8683.chk
%mem=8GB
%nprocshared=4
# B3LYP/6-311++G(d,p) empiricaldispersion=gd3bj scf=xqc pop=npa geom=check

CID_103785080_JID_8683_Energie_kation

1 2

--Link1--
%chk=JID_8683.chk
%mem=8GB
%nprocshared=4
# B3LYP/6-311++G(d,p) empiricaldispersion=gd3bj scf=xqc pop=npa geom=check

CID_103785080_JID_8683_Energie_anion

-1 2
