%chk=JID_10646.chk
%mem=8GB
%nprocshared=4
# opt freq B3LYP/6-31G(d) empiricaldispersion=gd3bj scf=xqc

CID_70124219_JID_10646_neutraal

0 1
C          1.34400       -0.22500        0.03600
C          0.50878        0.40512       -0.88404
C         -0.85529        0.12785       -0.88183
C         -1.38745       -0.77445        0.05074
C         -0.52073       -1.45120        0.92364
C          0.84167       -1.17617        0.91699
C         -2.88120       -0.88524        0.25295
N         -3.30844        0.02466        1.31720
C         -3.42091        1.46084        0.98041
C         -4.82531        2.06573        1.19843
C         -5.37511        2.17865        2.62162
C         -4.65165        3.19518        3.51134
C         -5.29060        4.56014        3.31379
N         -5.82066        5.69249        3.14991
C         -2.26579        2.38230        1.40294
O         -2.21654        3.58511        1.18334
O         -1.24305        1.77979        2.03265
C         -3.26096       -0.46656        2.59938
O         -3.17304       -1.63803        2.93375
O         -3.27198        0.47362        3.55854
H          2.40767        0.00175        0.04001
H          0.91909        1.12665       -1.58566
H         -1.50323        0.65930       -1.57426
H         -0.91473       -2.15730        1.65224
H          1.50362       -1.68315        1.61331
H         -3.42720       -0.64825       -0.66796
H         -3.14053       -1.92014        0.50662
H         -3.32015        1.48636       -0.11520
H         -4.85500        3.06308        0.74003
H         -5.53759        1.45404        0.62755
H         -6.43592        2.45735        2.54505
H         -5.39678        1.19527        3.09643
H         -4.81044        2.91799        4.56066
H         -3.57588        3.24813        3.35749
H         -0.56604        2.47561        2.15132
H         -3.14974       -0.06914        4.36551

--Link1--
%chk=JID_10646.chk
%mem=8GB
%nprocshared=4
# B3LYP/6-311++G(d,p) empiricaldispersion=gd3bj scf=xqc pop=npa geom=check

CID_70124219_JID_10646_Energie_neutraal

0 1

--Link1--
%chk=JID_10646.chk
%mem=8GB
%nprocshared=4
# B3LYP/6-311++G(d,p) empiricaldispersion=gd3bj scf=xqc pop=npa geom=check

CID_70124219_JID_10646_Energie_kation

1 2

--Link1--
%chk=JID_10646.chk
%mem=8GB
%nprocshared=4
# B3LYP/6-311++G(d,p) empiricaldispersion=gd3bj scf=xqc pop=npa geom=check

CID_70124219_JID_10646_Energie_anion

-1 2
