%chk=JID_6627.chk
%mem=8GB
%nprocshared=4
# opt freq B3LYP/6-31G(d) empiricaldispersion=gd3bj scf=xqc

CID_81814281_JID_6627_neutraal

0 1
C          1.00695        0.05147        0.08545
C          0.96448        1.43083        0.71839
N          1.10868        2.45148       -0.32251
C         -0.16511        2.84841       -0.91728
C         -0.52275        4.23355       -0.47191
C         -1.21823        5.11231       -1.20695
C          2.41256        2.68892       -0.70589
O          3.32624        2.14624       -0.06277
N          2.77055        3.46240       -1.77802
C          1.97027        4.24029       -2.69898
C          2.18564        5.73149       -2.49811
C          2.37038        7.01064       -2.32580
C          4.22794        3.57827       -1.99563
C          4.97485        4.52548       -1.05878
O          6.17472        4.76165       -1.11999
O          4.22508        5.13043       -0.11782
H          0.20386       -0.07591       -0.64804
H          0.88502       -0.71809        0.85431
H          1.95630       -0.13455       -0.42689
H          0.02500        1.58382        1.26238
H          1.76054        1.52183        1.46640
H         -0.15401        2.68499       -1.99559
H         -0.95411        2.17986       -0.54881
H         -0.19488        4.53089        0.52249
H         -1.44002        6.10246       -0.81957
H         -1.57798        4.87173       -2.20220
H          2.28869        3.97820       -3.71596
H          0.91378        4.04354       -2.67787
H          2.52317        8.05408       -2.17416
H          4.68552        2.58704       -1.89252
H          4.41252        3.91393       -3.02257
H          4.86841        5.64393        0.40925

--Link1--
%chk=JID_6627.chk
%mem=8GB
%nprocshared=4
# B3LYP/6-311++G(d,p) empiricaldispersion=gd3bj scf=xqc pop=npa geom=check

CID_81814281_JID_6627_Energie_neutraal

0 1

--Link1--
%chk=JID_6627.chk
%mem=8GB
%nprocshared=4
# B3LYP/6-311++G(d,p) empiricaldispersion=gd3bj scf=xqc pop=npa geom=check

CID_81814281_JID_6627_Energie_kation

1 2

--Link1--
%chk=JID_6627.chk
%mem=8GB
%nprocshared=4
# B3LYP/6-311++G(d,p) empiricaldispersion=gd3bj scf=xqc pop=npa geom=check

CID_81814281_JID_6627_Energie_anion

-1 2
