%chk=JID_8135.chk
%mem=8GB
%nprocshared=4
# opt freq B3LYP/6-31G(d) empiricaldispersion=gd3bj scf=xqc

CID_145935195_JID_8135_neutraal

0 1
C          0.97127       -0.04359       -0.08529
C          0.64034       -1.45461       -0.59507
C          1.37089       -2.49211        0.26419
N         -0.82234       -1.58398       -0.70543
C         -1.28630       -2.44074       -1.80467
C         -1.28028       -3.93217       -1.47281
N         -1.81583       -4.22199       -0.16115
C         -1.68455       -3.34335        0.88420
O         -1.79124       -3.76869        2.03412
C         -1.55713       -1.83576        0.56629
C         -2.96842       -1.22427        0.51974
C         -3.08462       -0.07645        1.50332
O         -2.71524        1.05462        1.17800
N         -3.59646       -0.32751        2.75228
C         -3.74329        0.76003        3.70345
C         -4.37811        0.08316        4.86839
C         -4.54579       -1.22332        4.63793
C         -4.04174       -1.60387        3.28862
H          0.64602        0.11056        0.94877
H          0.49386        0.72053       -0.70921
H          2.05201        0.13341       -0.12253
H          1.07071       -1.50822       -1.60392
H          1.07639       -2.44143        1.31712
H          1.20293       -3.51047       -0.09225
H          2.45237       -2.31708        0.22514
H         -2.31439       -2.15109       -2.05548
H         -0.71288       -2.25713       -2.72123
H         -1.87725       -4.49008       -2.20145
H         -0.26310       -4.33328       -1.50659
H         -1.86709       -5.18921        0.13428
H         -1.00109       -1.39291        1.40108
H         -3.20226       -0.79782       -0.46419
H         -3.75151       -1.96686        0.70034
H         -2.75964        1.17095        3.94982
H         -4.38248        1.54051        3.27978
H         -4.65757        0.59668        5.77640
H         -4.97880       -1.92734        5.33320
H         -4.83032       -2.02417        2.65967
H         -3.19550       -2.28623        3.36200

--Link1--
%chk=JID_8135.chk
%mem=8GB
%nprocshared=4
# B3LYP/6-311++G(d,p) empiricaldispersion=gd3bj scf=xqc pop=npa geom=check

CID_145935195_JID_8135_Energie_neutraal

0 1

--Link1--
%chk=JID_8135.chk
%mem=8GB
%nprocshared=4
# B3LYP/6-311++G(d,p) empiricaldispersion=gd3bj scf=xqc pop=npa geom=check

CID_145935195_JID_8135_Energie_kation

1 2

--Link1--
%chk=JID_8135.chk
%mem=8GB
%nprocshared=4
# B3LYP/6-311++G(d,p) empiricaldispersion=gd3bj scf=xqc pop=npa geom=check

CID_145935195_JID_8135_Energie_anion

-1 2
