%chk=JID_6530.chk
%mem=8GB
%nprocshared=4
# opt freq B3LYP/6-31G(d) empiricaldispersion=gd3bj scf=xqc

CID_64976415_JID_6530_neutraal

0 1
C          1.05689        0.04911       -0.06597
C          0.33390       -0.38843        1.20176
C          0.65761        0.50229        2.41706
C          0.14273        1.93860        2.28768
N          0.21778       -0.12604        3.68348
C          1.17821       -0.10909        4.78050
C         -1.11955       -0.29915        3.93937
N         -2.07084       -0.09313        3.05078
C         -3.32581       -0.34702        3.57033
C         -3.32765       -0.76571        4.88184
S         -1.74328       -0.83135        5.48170
C         -4.53596       -1.11038        5.68029
C         -5.67759       -1.48572        4.72462
C         -5.86006       -0.44928        3.60838
C         -4.57496       -0.20214        2.82057
O         -4.61969        0.16627        1.64811
H          0.72459        1.03808       -0.39473
H          0.85162       -0.65692       -0.87713
H          2.14000        0.07982        0.08842
H         -0.74092       -0.40264        0.99388
H          0.62408       -1.42296        1.42482
H          1.75297        0.57805        2.44790
H         -0.92871        1.97683        2.06961
H          0.31738        2.50087        3.21156
H          0.65974        2.46621        1.47973
H          1.02939        0.77282        5.41313
H          1.10439       -1.01258        5.39547
H          2.21006       -0.08348        4.41289
H         -4.82986       -0.24528        6.28658
H         -4.33993       -1.94571        6.36159
H         -6.61065       -1.59432        5.28877
H         -5.46034       -2.46179        4.27070
H         -6.63034       -0.79896        2.91234
H         -6.18614        0.50888        4.02871

--Link1--
%chk=JID_6530.chk
%mem=8GB
%nprocshared=4
# B3LYP/6-311++G(d,p) empiricaldispersion=gd3bj scf=xqc pop=npa geom=check

CID_64976415_JID_6530_Energie_neutraal

0 1

--Link1--
%chk=JID_6530.chk
%mem=8GB
%nprocshared=4
# B3LYP/6-311++G(d,p) empiricaldispersion=gd3bj scf=xqc pop=npa geom=check

CID_64976415_JID_6530_Energie_kation

1 2

--Link1--
%chk=JID_6530.chk
%mem=8GB
%nprocshared=4
# B3LYP/6-311++G(d,p) empiricaldispersion=gd3bj scf=xqc pop=npa geom=check

CID_64976415_JID_6530_Energie_anion

-1 2
