%chk=JID_10672.chk
%mem=8GB
%nprocshared=4
# opt freq B3LYP/6-31G(d) empiricaldispersion=gd3bj scf=xqc

CID_65274893_JID_10672_neutraal

0 1
C          0.93596       -0.01695        0.07491
C          0.73873       -0.66027       -1.29831
C          1.57575       -1.93485       -1.41923
C         -0.71348       -0.92894       -1.56626
N         -1.36681       -0.22899       -2.50181
S         -2.94334       -0.79648       -2.50589
C         -2.63606       -1.92152       -1.27212
N         -1.39299       -1.90434       -0.83628
N         -3.63369       -2.76740       -0.79916
C         -3.52102       -3.72596        0.18514
C         -4.75816       -4.31317        0.31866
C         -5.55869       -3.66210       -0.63874
N         -4.89458       -2.71930       -1.31183
C         -5.07153       -5.37753        1.25087
C         -4.40697       -6.60750        1.10479
C         -4.67762       -7.66801        1.96839
C         -5.60227       -7.50349        2.99370
C         -6.26387       -6.28298        3.14783
C         -6.04628       -5.21895        2.25932
N         -6.62722       -3.97470        2.56437
H          0.60451       -0.68110        0.88123
H          0.36355        0.91388        0.15626
H          1.99129        0.22120        0.24526
H          1.10874        0.04760       -2.05223
H          1.28698       -2.68003       -0.66932
H          1.45059       -2.39228       -2.40703
H          2.63995       -1.71491       -1.28265
H         -2.58032       -3.88346        0.69494
H         -6.60125       -3.83856       -0.87356
H         -3.67266       -6.74563        0.31403
H         -4.15692       -8.61452        1.84905
H         -5.79832       -8.31757        3.68677
H         -6.95166       -6.16359        3.98152
H         -6.65090       -3.31251        1.79687
H         -7.51405       -4.03825        3.05327

--Link1--
%chk=JID_10672.chk
%mem=8GB
%nprocshared=4
# B3LYP/6-311++G(d,p) empiricaldispersion=gd3bj scf=xqc pop=npa geom=check

CID_65274893_JID_10672_Energie_neutraal

0 1

--Link1--
%chk=JID_10672.chk
%mem=8GB
%nprocshared=4
# B3LYP/6-311++G(d,p) empiricaldispersion=gd3bj scf=xqc pop=npa geom=check

CID_65274893_JID_10672_Energie_kation

1 2

--Link1--
%chk=JID_10672.chk
%mem=8GB
%nprocshared=4
# B3LYP/6-311++G(d,p) empiricaldispersion=gd3bj scf=xqc pop=npa geom=check

CID_65274893_JID_10672_Energie_anion

-1 2
