%chk=JID_9204.chk
%mem=8GB
%nprocshared=4
# opt freq B3LYP/6-31G(d) empiricaldispersion=gd3bj scf=xqc

CID_107778270_JID_9204_neutraal

0 1
C          0.93431        0.05173       -0.05486
N          0.50795       -0.82864        1.02529
C         -0.94776       -0.73475        1.27688
C         -1.70667       -1.60371        0.24344
O         -1.15669       -2.92847        0.26274
C         -1.61821       -3.70708       -0.83347
C         -1.25224       -1.24144        2.68898
S         -0.89886       -0.06388        3.98178
O         -1.54177        1.18204        3.59088
O         -1.30081       -0.68802        5.23128
C          0.87477        0.24666        4.01728
C          1.61328       -0.84482        4.77860
C          1.70482       -2.25974        4.22386
C          2.89743       -1.36536        4.14189
C          1.65611       -0.66292        6.29729
C          2.38763        0.58211        6.75584
O          1.87112        1.49076        7.39274
O          3.69263        0.54931        6.36623
C          4.44625        1.70270        6.73993
H          0.71331        1.09844        0.17746
H          0.47036       -0.21010       -1.01016
H          2.01846       -0.03248       -0.17928
H          0.70433       -1.79961        0.75076
H         -1.29063        0.30215        1.18150
H         -2.77468       -1.65397        0.48450
H         -1.60186       -1.17459       -0.75990
H         -2.71079       -3.75560       -0.84168
H         -1.25000       -3.28723       -1.77471
H         -1.21976       -4.71961       -0.72701
H         -2.33186       -1.41916        2.78306
H         -0.76896       -2.19022        2.92499
H          1.24031        0.39390        3.00326
H          0.99639        1.20911        4.52651
H          1.73189       -3.08748        4.92589
H          1.26647       -2.53007        3.27288
H          3.18604       -0.99749        3.16219
H          3.74711       -1.61039        4.77106
H          0.64285       -0.61948        6.70632
H          2.13653       -1.52083        6.78473
H          3.99672        2.60995        6.32415
H          4.52390        1.76970        7.82920
H          5.45285        1.59675        6.32565

--Link1--
%chk=JID_9204.chk
%mem=8GB
%nprocshared=4
# B3LYP/6-311++G(d,p) empiricaldispersion=gd3bj scf=xqc pop=npa geom=check

CID_107778270_JID_9204_Energie_neutraal

0 1

--Link1--
%chk=JID_9204.chk
%mem=8GB
%nprocshared=4
# B3LYP/6-311++G(d,p) empiricaldispersion=gd3bj scf=xqc pop=npa geom=check

CID_107778270_JID_9204_Energie_kation

1 2

--Link1--
%chk=JID_9204.chk
%mem=8GB
%nprocshared=4
# B3LYP/6-311++G(d,p) empiricaldispersion=gd3bj scf=xqc pop=npa geom=check

CID_107778270_JID_9204_Energie_anion

-1 2
