%chk=JID_5260.chk
%mem=8GB
%nprocshared=4
# opt freq B3LYP/6-31G(d) empiricaldispersion=gd3bj scf=xqc

CID_61747217_JID_5260_neutraal

0 1
C          1.00564        0.07684       -0.06374
C          1.80551       -1.21817        0.03522
C          2.76088       -1.22012        1.23876
N          2.08344       -1.12943        2.52479
C          1.18663       -2.25346        2.84814
C          1.74843       -3.68186        2.76647
C          2.84556       -3.99191        3.77051
C          2.82704       -0.60011        3.70071
C          4.37095       -0.50399        3.61946
C          4.95307        0.73861        2.94662
C          4.26394        2.02399        3.37291
C          2.74515        1.92674        3.28163
C          2.21470        0.78074        4.16075
N          0.73986        0.68689        4.17702
C          0.04049        1.91924        4.48287
H          0.34485        0.20894        0.79803
H          0.38195        0.06336       -0.96329
H          1.66971        0.94464       -0.12786
H          1.12545       -2.07608        0.06305
H          2.40080       -1.32846       -0.87948
H          3.41700       -2.09621        1.19394
H          3.39481       -0.34896        1.08466
H          0.73942       -2.11160        3.84089
H          0.32597       -2.20092        2.16955
H          0.91866       -4.37692        2.94809
H          2.10528       -3.90139        1.75431
H          2.52526       -3.75906        4.79076
H          3.09755       -5.05684        3.73335
H          3.75793       -3.43309        3.55232
H          2.64369       -1.28901        4.53731
H          4.74682       -0.51400        4.65250
H          4.79268       -1.40181        3.15400
H          4.91491        0.65347        1.85809
H          6.02078        0.80688        3.18932
H          4.61772        2.85258        2.74847
H          4.54996        2.26377        4.40451
H          2.43920        1.78980        2.23779
H          2.33718        2.88925        3.60974
H          2.54217        0.95637        5.19427
H          0.45527        0.32629        3.26350
H          0.10254        2.64042        3.66251
H         -1.02063        1.69976        4.63895
H          0.41816        2.37830        5.40138

--Link1--
%chk=JID_5260.chk
%mem=8GB
%nprocshared=4
# B3LYP/6-311++G(d,p) empiricaldispersion=gd3bj scf=xqc pop=npa geom=check

CID_61747217_JID_5260_Energie_neutraal

0 1

--Link1--
%chk=JID_5260.chk
%mem=8GB
%nprocshared=4
# B3LYP/6-311++G(d,p) empiricaldispersion=gd3bj scf=xqc pop=npa geom=check

CID_61747217_JID_5260_Energie_kation

1 2

--Link1--
%chk=JID_5260.chk
%mem=8GB
%nprocshared=4
# B3LYP/6-311++G(d,p) empiricaldispersion=gd3bj scf=xqc pop=npa geom=check

CID_61747217_JID_5260_Energie_anion

-1 2
