%chk=JID_10670.chk
%mem=8GB
%nprocshared=4
# opt freq B3LYP/6-31G(d) empiricaldispersion=gd3bj scf=xqc

CID_43697598_JID_10670_neutraal

0 1
C          2.49200        0.00400       -0.01400
C          1.02396        0.12816       -0.32662
C          0.19340       -0.99782       -0.50498
C         -1.16021       -0.81046       -0.82127
C         -1.71387        0.46896       -0.92471
C         -0.89016        1.57377       -0.68839
C          0.46520        1.40909       -0.40896
N         -3.05550        0.76288       -1.22973
C         -4.10701        0.03758       -1.69914
O         -5.20866        0.59340       -1.75972
C         -3.95174       -1.37469       -2.17454
N          0.79029       -2.26866       -0.44151
C          0.34851       -3.52970       -0.19828
O          1.08423       -4.44579       -0.60012
C         -0.89909       -3.89964        0.63508
C         -0.90799       -3.39130        2.09053
C         -1.45662       -1.99640        2.44636
C         -2.96233       -1.85281        2.22501
C         -1.14651       -1.69800        3.92117
N         -2.14779       -3.81706       -0.12974
H          2.64468       -0.63949        0.85865
H          3.02842       -0.40896       -0.87415
H          2.93832        0.97661        0.21971
H         -1.76900       -1.67820       -0.99846
H         -1.28522        2.58571       -0.74742
H          1.08138        2.29268       -0.25487
H         -3.34188        1.72473       -1.08340
H         -3.05325       -1.49047       -2.78417
H         -3.95541       -2.05409       -1.32163
H         -4.80465       -1.62878       -2.81280
H          1.75867       -2.30008       -0.73823
H         -0.76387       -4.98590        0.76813
H         -1.47006       -4.12371        2.68855
H          0.12686       -3.44925        2.45645
H         -0.93820       -1.23374        1.86591
H         -3.51635       -2.65225        2.72832
H         -3.32279       -0.89618        2.61961
H         -3.22315       -1.87014        1.16557
H         -0.06842       -1.74183        4.10960
H         -1.48842       -0.69433        4.19607
H         -1.63776       -2.41772        4.58495
H         -2.89869       -4.23121        0.42282
H         -2.05508       -4.41147       -0.95639

--Link1--
%chk=JID_10670.chk
%mem=8GB
%nprocshared=4
# B3LYP/6-311++G(d,p) empiricaldispersion=gd3bj scf=xqc pop=npa geom=check

CID_43697598_JID_10670_Energie_neutraal

0 1

--Link1--
%chk=JID_10670.chk
%mem=8GB
%nprocshared=4
# B3LYP/6-311++G(d,p) empiricaldispersion=gd3bj scf=xqc pop=npa geom=check

CID_43697598_JID_10670_Energie_kation

1 2

--Link1--
%chk=JID_10670.chk
%mem=8GB
%nprocshared=4
# B3LYP/6-311++G(d,p) empiricaldispersion=gd3bj scf=xqc pop=npa geom=check

CID_43697598_JID_10670_Energie_anion

-1 2
