%chk=JID_3369.chk
%mem=8GB
%nprocshared=4
# opt freq B3LYP/6-31G(d) empiricaldispersion=gd3bj scf=xqc

CID_102646888_JID_3369_neutraal

0 1
C          1.06889       -0.01419       -0.07108
C          0.98915        1.49983       -0.16732
C          1.72394        2.09499       -1.36710
S          0.76002        2.11768       -2.91969
C          1.05017        0.44998       -3.58812
C          2.51602        0.07752       -3.65257
O          3.02227       -0.65465       -2.79860
C          3.33784        0.63019       -4.78828
C          4.66033        0.38773       -4.79831
C          5.57532        0.95745       -5.83321
C          4.87800        2.05000       -6.63296
C          3.45243        1.62042       -6.94216
O          2.69136        1.37701       -5.75388
H          0.48147       -0.50164       -0.85076
H          0.66613       -0.34703        0.89144
H          2.10409       -0.36219       -0.13751
H         -0.05796        1.82401       -0.14371
H          1.45452        1.90558        0.74026
H          1.91093        3.15190       -1.14335
H          2.70925        1.64368       -1.50968
H          0.51400       -0.29477       -2.99536
H          0.61657        0.39160       -4.59203
H          5.11611       -0.22103       -4.02021
H          5.90147        0.14964       -6.49852
H          6.47084        1.36868       -5.35473
H          5.43136        2.26171       -7.55367
H          4.85725        2.97165       -6.03731
H          2.93997        2.41039       -7.50102
H          3.43552        0.71655       -7.56356

--Link1--
%chk=JID_3369.chk
%mem=8GB
%nprocshared=4
# B3LYP/6-311++G(d,p) empiricaldispersion=gd3bj scf=xqc pop=npa geom=check

CID_102646888_JID_3369_Energie_neutraal

0 1

--Link1--
%chk=JID_3369.chk
%mem=8GB
%nprocshared=4
# B3LYP/6-311++G(d,p) empiricaldispersion=gd3bj scf=xqc pop=npa geom=check

CID_102646888_JID_3369_Energie_kation

1 2

--Link1--
%chk=JID_3369.chk
%mem=8GB
%nprocshared=4
# B3LYP/6-311++G(d,p) empiricaldispersion=gd3bj scf=xqc pop=npa geom=check

CID_102646888_JID_3369_Energie_anion

-1 2
