%chk=JID_4988.chk
%mem=8GB
%nprocshared=4
# opt freq B3LYP/6-31G(d) empiricaldispersion=gd3bj scf=xqc

CID_83391277_JID_4988_neutraal

0 1
C          1.06694       -0.06519       -0.03562
N          0.61263       -0.94507        1.02937
C         -0.69652       -0.66757        1.59695
C          0.88269       -2.29516        0.81606
N          0.15219       -3.22096        1.46560
C          0.43834       -4.52661        1.25824
C          1.43973       -4.95862        0.42512
C          2.14442       -3.95290       -0.19050
N          1.88307       -2.63794       -0.01506
C          1.78692       -6.36504        0.17939
O          2.76231       -6.66062       -0.50089
C          0.92063       -7.47248        0.77579
O         -0.29347       -7.45223        0.79319
O          1.64181       -8.46879        1.29651
H          0.84546        0.97902        0.21298
H          0.56803       -0.29441       -0.98451
H          2.15257       -0.12410       -0.17482
H         -1.50111       -0.98852        0.92518
H         -0.82520       -1.15132        2.57213
H         -0.81590        0.40815        1.76954
H         -0.19896       -5.20268        1.81938
H          2.96853       -4.16415       -0.86788
H          0.99302       -9.13714        1.59741

--Link1--
%chk=JID_4988.chk
%mem=8GB
%nprocshared=4
# B3LYP/6-311++G(d,p) empiricaldispersion=gd3bj scf=xqc pop=npa geom=check

CID_83391277_JID_4988_Energie_neutraal

0 1

--Link1--
%chk=JID_4988.chk
%mem=8GB
%nprocshared=4
# B3LYP/6-311++G(d,p) empiricaldispersion=gd3bj scf=xqc pop=npa geom=check

CID_83391277_JID_4988_Energie_kation

1 2

--Link1--
%chk=JID_4988.chk
%mem=8GB
%nprocshared=4
# B3LYP/6-311++G(d,p) empiricaldispersion=gd3bj scf=xqc pop=npa geom=check

CID_83391277_JID_4988_Energie_anion

-1 2
