%chk=JID_4833.chk
%mem=8GB
%nprocshared=4
# opt freq B3LYP/6-31G(d) empiricaldispersion=gd3bj scf=xqc

CID_65107108_JID_4833_neutraal

0 1
C          1.69800        0.03400       -0.78800
C          0.85037       -0.32407        0.43190
C          0.07645       -1.63049        0.21179
C         -1.38244       -1.24132       -0.04410
C         -1.39387        0.28333       -0.18832
C         -0.23661        0.71618        0.71192
N         -2.64456        0.92429        0.21722
C         -3.74138        0.63184       -0.72452
C         -5.03415        1.39682       -0.34032
C         -6.20102        1.04525       -1.26432
C         -6.01534        1.93961       -2.48573
C         -5.20653        3.14663       -2.00794
C         -4.93530        2.91399       -0.52541
O         -5.38220        1.08571        1.00848
H          2.47453       -0.72157       -0.94849
H          1.09965        0.09601       -1.70252
H          2.19513        0.99875       -0.64267
H          1.52015       -0.41362        1.29501
H          0.48225       -2.22180       -0.61604
H          0.13149       -2.25742        1.10980
H         -1.99476       -1.56667        0.80631
H         -1.77989       -1.73465       -0.93746
H         -1.15507        0.56281       -1.22253
H         -0.52603        0.66256        1.76995
H          0.09006        1.74128        0.50727
H         -2.91339        0.56137        1.13303
H         -3.95135       -0.44433       -0.69775
H         -3.43737        0.89155       -1.74502
H         -6.23068       -0.01633       -1.53143
H         -7.15703        1.27264       -0.77516
H         -6.97956        2.23868       -2.90909
H         -5.46419        1.40908       -3.27062
H         -5.74629        4.08545       -2.16869
H         -4.26551        3.21053       -2.56601
H         -5.70165        3.41877        0.07737
H         -3.97181        3.32925       -0.21361
H         -4.73194        1.55279        1.56311

--Link1--
%chk=JID_4833.chk
%mem=8GB
%nprocshared=4
# B3LYP/6-311++G(d,p) empiricaldispersion=gd3bj scf=xqc pop=npa geom=check

CID_65107108_JID_4833_Energie_neutraal

0 1

--Link1--
%chk=JID_4833.chk
%mem=8GB
%nprocshared=4
# B3LYP/6-311++G(d,p) empiricaldispersion=gd3bj scf=xqc pop=npa geom=check

CID_65107108_JID_4833_Energie_kation

1 2

--Link1--
%chk=JID_4833.chk
%mem=8GB
%nprocshared=4
# B3LYP/6-311++G(d,p) empiricaldispersion=gd3bj scf=xqc pop=npa geom=check

CID_65107108_JID_4833_Energie_anion

-1 2
