%chk=JID_10396.chk
%mem=8GB
%nprocshared=4
# opt freq B3LYP/6-31G(d) empiricaldispersion=gd3bj scf=xqc

CID_122299528_JID_10396_neutraal

0 1
C          0.97310       -0.04450       -0.08542
C          0.24831        0.16721        1.23608
C         -0.53056        1.48481        1.30172
C         -1.76337        1.54995        0.39543
C         -2.90463        0.72915        0.96362
O         -3.55022        1.15909        1.92513
N         -3.16386       -0.54417        0.55545
C         -2.78085       -1.27667       -0.57684
C         -2.81038       -2.65337       -0.53946
N         -2.44922       -3.45332       -1.56571
C         -2.05423       -2.87115       -2.71052
N         -2.05485       -1.53486       -2.85721
C         -2.42938       -0.77335       -1.80426
N         -1.65561       -3.67597       -3.78643
C         -0.78826       -2.97801       -4.73874
C         -0.52875       -3.84873       -5.96867
C          0.00949       -5.22763       -5.57540
C         -0.96917       -5.89419       -4.60389
C         -1.22618       -5.01583       -3.37878
C          0.23137       -6.09843       -6.80926
H          0.27920       -0.12370       -0.92467
H          1.55690       -0.96988       -0.04844
H          1.66299        0.78086       -0.28831
H         -0.41262       -0.68228        1.43616
H          0.99776        0.17212        2.03698
H         -0.83605        1.65206        2.34232
H          0.14359        2.30951        1.03960
H         -2.12154        2.58654        0.35331
H         -1.49619        1.29283       -0.62269
H         -3.75020       -1.02645        1.22993
H         -3.10920       -3.19114        0.35584
H         -2.48104        0.28191       -2.04176
H          0.16747       -2.71977       -4.26343
H         -1.25046       -2.04907       -5.09568
H          0.18305       -3.33967       -6.62932
H         -1.46345       -3.96329       -6.53333
H          0.97605       -5.09892       -5.07057
H         -1.92168       -6.08982       -5.11388
H         -0.57614       -6.86455       -4.27809
H         -0.31231       -4.95430       -2.77294
H         -1.99626       -5.51813       -2.77989
H          0.94587       -5.62740       -7.49250
H          0.63331       -7.07682       -6.52586
H         -0.70321       -6.26179       -7.35649

--Link1--
%chk=JID_10396.chk
%mem=8GB
%nprocshared=4
# B3LYP/6-311++G(d,p) empiricaldispersion=gd3bj scf=xqc pop=npa geom=check

CID_122299528_JID_10396_Energie_neutraal

0 1

--Link1--
%chk=JID_10396.chk
%mem=8GB
%nprocshared=4
# B3LYP/6-311++G(d,p) empiricaldispersion=gd3bj scf=xqc pop=npa geom=check

CID_122299528_JID_10396_Energie_kation

1 2

--Link1--
%chk=JID_10396.chk
%mem=8GB
%nprocshared=4
# B3LYP/6-311++G(d,p) empiricaldispersion=gd3bj scf=xqc pop=npa geom=check

CID_122299528_JID_10396_Energie_anion

-1 2
