%chk=JID_8388.chk
%mem=8GB
%nprocshared=4
# opt freq B3LYP/6-31G(d) empiricaldispersion=gd3bj scf=xqc

CID_65757844_JID_8388_neutraal

0 1
C          0.94376        0.06564        0.05028
C          0.66455        1.49907        0.48564
C          1.30986        2.53335       -0.43932
N          0.73398        2.44192       -1.78087
C          1.46767        3.22781       -2.78209
C          2.79009        2.61360       -3.22765
S          2.67100        1.51439       -4.62919
O          1.87468        2.17784       -5.64103
O          4.02941        1.08961       -4.90622
N          1.81531        0.22408       -3.99674
C          0.37898        0.11789       -4.26236
C          2.52355       -1.03575       -3.70416
C          2.60223       -2.05147       -4.83460
C          3.00694       -3.35622       -4.55046
C          3.08057       -4.28360       -5.58730
C          2.76255       -3.88724       -6.87996
C          2.37754       -2.57445       -7.08287
N          2.28392       -1.66012       -6.09469
H          0.48332       -0.15774       -0.91675
H          0.53331       -0.63578        0.78368
H          2.02001       -0.11838       -0.02878
H         -0.41905        1.65989        0.53911
H          1.05608        1.64221        1.49977
H          1.14077        3.53727       -0.03256
H          2.39126        2.36213       -0.45179
H         -0.23295        2.76905       -1.74258
H          0.80944        3.38219       -3.64354
H          1.65587        4.22709       -2.36940
H          3.45231        3.42098       -3.56412
H          3.31919        2.08225       -2.43147
H          0.18963       -0.23993       -5.27740
H         -0.08756       -0.57545       -3.55518
H         -0.11939        1.08217       -4.13642
H          3.53874       -0.82473       -3.34763
H          2.01138       -1.50708       -2.85451
H          3.26085       -3.65269       -3.53782
H          3.38907       -5.30591       -5.38848
H          2.81713       -4.58153       -7.71044
H          2.12640       -2.20820       -8.07408

--Link1--
%chk=JID_8388.chk
%mem=8GB
%nprocshared=4
# B3LYP/6-311++G(d,p) empiricaldispersion=gd3bj scf=xqc pop=npa geom=check

CID_65757844_JID_8388_Energie_neutraal

0 1

--Link1--
%chk=JID_8388.chk
%mem=8GB
%nprocshared=4
# B3LYP/6-311++G(d,p) empiricaldispersion=gd3bj scf=xqc pop=npa geom=check

CID_65757844_JID_8388_Energie_kation

1 2

--Link1--
%chk=JID_8388.chk
%mem=8GB
%nprocshared=4
# B3LYP/6-311++G(d,p) empiricaldispersion=gd3bj scf=xqc pop=npa geom=check

CID_65757844_JID_8388_Energie_anion

-1 2
