%chk=JID_9422.chk
%mem=8GB
%nprocshared=4
# opt freq B3LYP/6-31G(d) empiricaldispersion=gd3bj scf=xqc

CID_107381485_JID_9422_neutraal

0 1
C          1.03072        0.05834        0.07518
C          1.03779        0.77320       -1.27010
C          1.19213       -0.18079       -2.45870
C          0.02837       -1.16021       -2.63564
C         -1.22160       -0.52535       -3.25798
C         -1.24618       -0.55437       -4.79136
C         -1.25059       -1.95335       -5.41919
O         -2.40825       -2.69863       -5.02596
C         -2.05803       -3.77472       -4.25425
N         -2.21781       -3.63063       -2.92453
C         -1.85733       -4.70174       -2.18019
C         -1.37865       -5.88688       -2.73370
N         -1.23625       -6.03136       -4.07954
C         -1.59900       -4.95465       -4.82225
C         -0.97241       -7.02964       -1.83333
N          0.30430       -6.75906       -1.15928
C          0.64838       -7.79163       -0.17966
C          1.32948       -9.05670       -0.61681
C          2.09519       -8.02199        0.15645
H          0.12721       -0.54204        0.21186
H          1.05945        0.79252        0.88708
H          1.90325       -0.59411        0.17996
H          0.12688        1.37286       -1.36960
H          1.87883        1.47703       -1.28258
H          1.32674        0.40503       -3.37570
H          2.11578       -0.75706       -2.32172
H          0.37877       -2.00005       -3.24248
H         -0.24233       -1.59666       -1.66910
H         -2.11221       -1.03846       -2.88042
H         -1.32456        0.51400       -2.92614
H         -2.15479       -0.03045       -5.11402
H         -0.39362        0.01154       -5.18396
H         -1.31196       -1.83887       -6.50816
H         -0.30757       -2.47953       -5.22548
H         -1.95452       -4.57788       -1.10626
H         -1.50374       -5.06386       -5.89574
H         -1.76898       -7.19136       -1.09637
H         -0.89327       -7.94636       -2.43020
H          1.02394       -6.67431       -1.87944
H         -0.04548       -7.86974        0.65615
H          1.06169       -9.97517       -0.10690
H          1.56995       -9.18794       -1.66502
H          2.85176       -7.45003       -0.36753
H          2.34420       -8.23756        1.18930

--Link1--
%chk=JID_9422.chk
%mem=8GB
%nprocshared=4
# B3LYP/6-311++G(d,p) empiricaldispersion=gd3bj scf=xqc pop=npa geom=check

CID_107381485_JID_9422_Energie_neutraal

0 1

--Link1--
%chk=JID_9422.chk
%mem=8GB
%nprocshared=4
# B3LYP/6-311++G(d,p) empiricaldispersion=gd3bj scf=xqc pop=npa geom=check

CID_107381485_JID_9422_Energie_kation

1 2

--Link1--
%chk=JID_9422.chk
%mem=8GB
%nprocshared=4
# B3LYP/6-311++G(d,p) empiricaldispersion=gd3bj scf=xqc pop=npa geom=check

CID_107381485_JID_9422_Energie_anion

-1 2
