%chk=JID_3319.chk
%mem=8GB
%nprocshared=4
# opt freq B3LYP/6-31G(d) empiricaldispersion=gd3bj scf=xqc

CID_130513704_JID_3319_neutraal

0 1
C          1.24600        0.75200        0.43800
C          1.29796       -0.74252        0.13199
C          0.18761       -0.99618       -0.88357
C         -0.84631        0.10828       -0.60528
C          0.06221        1.30996       -0.35510
C         -1.84884        0.22762       -1.75884
C         -2.91829        1.34019       -1.68645
C         -3.43338        1.90845       -0.31430
C         -3.46985        3.30925       -0.95785
C         -2.44147        2.80491       -1.98992
C         -4.02876        0.94743       -2.56755
N         -4.89833        0.63057       -3.26775
O         -1.54023       -0.22599        0.59593
H          1.09801        0.90824        1.51276
H          2.17749        1.25581        0.16001
H          1.11542       -1.31598        1.04834
H          2.27451       -1.04792       -0.25668
H         -0.22149       -2.00510       -0.76603
H          0.59508       -0.90448       -1.89794
H          0.43229        1.72073       -1.30193
H         -0.42053        2.10985        0.21338
H         -1.30409        0.33303       -2.70737
H         -2.36698       -0.74201       -1.81239
H         -4.39913        1.53251        0.03845
H         -2.73352        1.87067        0.52448
H         -3.13452        4.13135       -0.32014
H         -4.44123        3.57371       -1.39111
H         -1.41015        3.03798       -1.71410
H         -2.59660        3.16684       -3.01190
H         -1.89708       -1.12717        0.50602

--Link1--
%chk=JID_3319.chk
%mem=8GB
%nprocshared=4
# B3LYP/6-311++G(d,p) empiricaldispersion=gd3bj scf=xqc pop=npa geom=check

CID_130513704_JID_3319_Energie_neutraal

0 1

--Link1--
%chk=JID_3319.chk
%mem=8GB
%nprocshared=4
# B3LYP/6-311++G(d,p) empiricaldispersion=gd3bj scf=xqc pop=npa geom=check

CID_130513704_JID_3319_Energie_kation

1 2

--Link1--
%chk=JID_3319.chk
%mem=8GB
%nprocshared=4
# B3LYP/6-311++G(d,p) empiricaldispersion=gd3bj scf=xqc pop=npa geom=check

CID_130513704_JID_3319_Energie_anion

-1 2
