%chk=JID_3970.chk
%mem=8GB
%nprocshared=4
# opt freq B3LYP/6-31G(d) empiricaldispersion=gd3bj scf=xqc

CID_104867005_JID_3970_neutraal

0 1
C          0.94414        0.07892       -0.02551
C          0.80241        1.01858        1.16875
C          0.64606        2.52695        0.86990
C          0.43067        2.95765       -0.58701
N         -0.89512        2.58083       -1.07932
C         -1.11608        3.03947       -2.47875
C         -0.39362        2.13106       -3.47219
C         -2.64357        2.96945       -2.76415
N         -3.24765        3.64828       -3.70029
O         -2.36218        4.47072       -4.40260
N         -3.39075        2.10674       -1.99549
S         -0.44899        0.38440        2.36706
C         -1.98071        0.60459        1.43174
H          0.05508        0.05939       -0.66103
H          1.13876       -0.94827        0.30437
H          1.79579        0.37427       -0.64771
H          1.73905        0.92289        1.73375
H         -0.12569        2.98457        1.50220
H          1.58091        3.00944        1.19085
H          0.53365        4.04930       -0.63234
H          1.22547        2.53913       -1.21166
H         -1.59299        3.06478       -0.50632
H         -0.79236        4.08063       -2.58849
H         -0.68033        1.08204       -3.33358
H         -0.64450        2.39717       -4.50452
H          0.69341        2.20287       -3.37125
H         -2.95503        4.92003       -5.03389
H         -2.84196        1.35575       -1.58662
H         -4.24830        1.81231       -2.44723
H         -2.19772        1.66461        1.28794
H         -1.93915        0.09021        0.46976
H         -2.80466        0.17236        2.00683

--Link1--
%chk=JID_3970.chk
%mem=8GB
%nprocshared=4
# B3LYP/6-311++G(d,p) empiricaldispersion=gd3bj scf=xqc pop=npa geom=check

CID_104867005_JID_3970_Energie_neutraal

0 1

--Link1--
%chk=JID_3970.chk
%mem=8GB
%nprocshared=4
# B3LYP/6-311++G(d,p) empiricaldispersion=gd3bj scf=xqc pop=npa geom=check

CID_104867005_JID_3970_Energie_kation

1 2

--Link1--
%chk=JID_3970.chk
%mem=8GB
%nprocshared=4
# B3LYP/6-311++G(d,p) empiricaldispersion=gd3bj scf=xqc pop=npa geom=check

CID_104867005_JID_3970_Energie_anion

-1 2
