%chk=JID_4432.chk
%mem=8GB
%nprocshared=4
# opt freq B3LYP/6-31G(d) empiricaldispersion=gd3bj scf=xqc

CID_88766103_JID_4432_neutraal

0 1
C          0.94784        0.07152       -0.04653
C          0.35328       -1.22303        0.43272
C          0.20355       -2.27631       -0.39580
C         -0.38797       -3.55882       -0.00129
C         -0.76025       -3.67874        1.46186
S          0.60777       -4.60359        0.95242
C         -0.49883       -2.51145        2.36961
C         -0.03539       -1.34177        1.84149
O          0.12470       -0.16856        2.53484
C         -0.80342       -2.74742        3.88319
C          0.30323       -2.17801        4.80519
C         -2.16289       -2.11389        4.23752
C         -0.89513       -4.25310        4.25723
O         -1.23449       -4.28013       -0.91312
H          0.23239        0.89271        0.06966
H          1.22313        0.02717       -1.10605
H          1.85632        0.31288        0.51581
H          0.50621       -2.19114       -1.43518
H         -1.68459       -4.21444        1.64786
H         -0.45432       -0.18282        3.30925
H          0.30134       -1.08760        4.86616
H          0.17658       -2.52826        5.83708
H          1.29674       -2.49892        4.47108
H         -2.96889       -2.54572        3.63247
H         -2.41382       -2.28331        5.29122
H         -2.17479       -1.03211        4.07406
H         -1.72311       -4.75945        3.75041
H          0.03426       -4.78304        4.02191
H         -1.07440       -4.38156        5.33210
H         -0.81900       -5.13718       -1.10945

--Link1--
%chk=JID_4432.chk
%mem=8GB
%nprocshared=4
# B3LYP/6-311++G(d,p) empiricaldispersion=gd3bj scf=xqc pop=npa geom=check

CID_88766103_JID_4432_Energie_neutraal

0 1

--Link1--
%chk=JID_4432.chk
%mem=8GB
%nprocshared=4
# B3LYP/6-311++G(d,p) empiricaldispersion=gd3bj scf=xqc pop=npa geom=check

CID_88766103_JID_4432_Energie_kation

1 2

--Link1--
%chk=JID_4432.chk
%mem=8GB
%nprocshared=4
# B3LYP/6-311++G(d,p) empiricaldispersion=gd3bj scf=xqc pop=npa geom=check

CID_88766103_JID_4432_Energie_anion

-1 2
