%chk=JID_3395.chk
%mem=8GB
%nprocshared=4
# opt freq B3LYP/6-31G(d) empiricaldispersion=gd3bj scf=xqc

CID_69230538_JID_3395_neutraal

0 1
C          0.95873       -0.02890       -0.08638
C          0.22471       -1.23075        0.52892
C          0.64092       -1.35576        1.99853
C         -1.28406       -1.01106        0.37358
O          0.67787       -2.37047       -0.24769
C          0.22359       -3.63317        0.01698
O         -0.57921       -3.88357        0.90627
N          0.78443       -4.56480       -0.83779
C          1.70089       -4.31718       -1.84991
C          2.01269       -5.46566       -2.46262
N          1.31266       -6.47846       -1.86957
C          0.51281       -5.96133       -0.82697
O         -0.22038       -6.62977       -0.12164
H          0.70066        0.90805        0.41834
H          0.71582        0.07278       -1.15063
H          2.04510       -0.16499       -0.02947
H          0.45242       -0.42605        2.54623
H          0.09626       -2.15314        2.51273
H          1.70614       -1.59922        2.08135
H         -1.57089       -1.01741       -0.68399
H         -1.86594       -1.79872        0.86125
H         -1.59473       -0.05705        0.81318
H          2.06962       -3.32472       -2.06199
H          2.68872       -5.63904       -3.28626
H          1.33232       -7.45968       -2.10693

--Link1--
%chk=JID_3395.chk
%mem=8GB
%nprocshared=4
# B3LYP/6-311++G(d,p) empiricaldispersion=gd3bj scf=xqc pop=npa geom=check

CID_69230538_JID_3395_Energie_neutraal

0 1

--Link1--
%chk=JID_3395.chk
%mem=8GB
%nprocshared=4
# B3LYP/6-311++G(d,p) empiricaldispersion=gd3bj scf=xqc pop=npa geom=check

CID_69230538_JID_3395_Energie_kation

1 2

--Link1--
%chk=JID_3395.chk
%mem=8GB
%nprocshared=4
# B3LYP/6-311++G(d,p) empiricaldispersion=gd3bj scf=xqc pop=npa geom=check

CID_69230538_JID_3395_Energie_anion

-1 2
