%chk=JID_4089.chk
%mem=8GB
%nprocshared=4
# opt freq B3LYP/6-31G(d) empiricaldispersion=gd3bj scf=xqc

CID_56974211_JID_4089_neutraal

0 1
C          1.07368       -0.02228        0.06383
N          0.64676       -0.79057        1.23868
C          1.74017       -0.90457        2.21916
C          2.41664       -2.29448        2.12124
C          1.49043       -3.43969        2.39936
C          0.21151       -3.41303        2.01457
N          1.00413       -4.46464        1.56039
C          1.24766       -4.36978        0.10820
C          0.82549       -5.77451        2.19714
N         -0.96957       -3.40146        2.68725
O         -1.83237       -2.32454        2.35150
C         -1.32125       -1.07583        2.87578
C         -0.60556       -0.22107        1.79675
C         -1.21777       -3.89519        4.03641
H          1.29416        1.02157        0.31401
H          0.29745       -0.03747       -0.70913
H          1.96822       -0.46943       -0.38382
H          1.37978       -0.77295        3.24638
H          2.49481       -0.12005        2.07699
H          3.21170       -2.32674        2.87665
H          2.91458       -2.41281        1.15204
H          2.23526       -4.79546       -0.09570
H          0.48224       -4.96261       -0.40343
H          1.20782       -3.33665       -0.25686
H          0.91745       -5.71173        3.28738
H         -0.15260       -6.17506        1.91169
H          1.61030       -6.43922        1.82155
H         -0.69810       -1.22852        3.76374
H         -2.20047       -0.51680        3.21645
H         -1.32038       -0.10128        0.97250
H         -0.40647        0.77618        2.20905
H         -1.12446       -4.98400        4.07256
H         -0.51469       -3.45650        4.75184
H         -2.23535       -3.65046        4.36073

--Link1--
%chk=JID_4089.chk
%mem=8GB
%nprocshared=4
# B3LYP/6-311++G(d,p) empiricaldispersion=gd3bj scf=xqc pop=npa geom=check

CID_56974211_JID_4089_Energie_neutraal

0 1

--Link1--
%chk=JID_4089.chk
%mem=8GB
%nprocshared=4
# B3LYP/6-311++G(d,p) empiricaldispersion=gd3bj scf=xqc pop=npa geom=check

CID_56974211_JID_4089_Energie_kation

1 2

--Link1--
%chk=JID_4089.chk
%mem=8GB
%nprocshared=4
# B3LYP/6-311++G(d,p) empiricaldispersion=gd3bj scf=xqc pop=npa geom=check

CID_56974211_JID_4089_Energie_anion

-1 2
