%chk=JID_6876.chk
%mem=8GB
%nprocshared=4
# opt freq B3LYP/6-31G(d) empiricaldispersion=gd3bj scf=xqc

CID_82158576_JID_6876_neutraal

0 1
C          1.00673        0.09585       -0.02771
C          0.53545       -1.25751       -0.53653
C          0.91407       -2.42369        0.38238
C          0.29886       -2.37796        1.78641
C         -1.20776       -2.46198        1.79646
C         -1.98098       -1.34798        2.14169
C         -3.37648       -1.42225        2.13977
C         -4.03119       -2.61140        1.78985
C         -3.25203       -3.72919        1.45634
C         -1.85687       -3.65467        1.45738
C         -5.53571       -2.67250        1.80945
C         -6.11525       -3.41466        3.00927
C         -7.48540       -3.87152        2.51243
C         -7.27759       -4.00530        1.02407
O         -8.04276       -4.52356        0.23088
N         -6.09126       -3.38632        0.69612
H          0.49951        0.37802        0.89894
H          0.79296        0.87094       -0.77075
H          2.08580        0.09216        0.15582
H         -0.54802       -1.23171       -0.69704
H          0.98975       -1.43427       -1.51912
H          0.62861       -3.35969       -0.11388
H          2.00626       -2.45216        0.48457
H          0.68901       -3.22117        2.37156
H          0.63334       -1.47904        2.31757
H         -1.50199       -0.40964        2.41249
H         -3.94778       -0.53755        2.41328
H         -3.72830       -4.67129        1.19082
H         -1.27914       -4.53725        1.19126
H         -5.95550       -1.65920        1.75749
H         -6.17942       -2.78761        3.90414
H         -5.51350       -4.29588        3.26726
H         -8.25122       -3.11210        2.69671
H         -7.77939       -4.82570        2.95577
H         -5.83949       -3.23497       -0.27226

--Link1--
%chk=JID_6876.chk
%mem=8GB
%nprocshared=4
# B3LYP/6-311++G(d,p) empiricaldispersion=gd3bj scf=xqc pop=npa geom=check

CID_82158576_JID_6876_Energie_neutraal

0 1

--Link1--
%chk=JID_6876.chk
%mem=8GB
%nprocshared=4
# B3LYP/6-311++G(d,p) empiricaldispersion=gd3bj scf=xqc pop=npa geom=check

CID_82158576_JID_6876_Energie_kation

1 2

--Link1--
%chk=JID_6876.chk
%mem=8GB
%nprocshared=4
# B3LYP/6-311++G(d,p) empiricaldispersion=gd3bj scf=xqc pop=npa geom=check

CID_82158576_JID_6876_Energie_anion

-1 2
