%chk=JID_3921.chk
%mem=8GB
%nprocshared=4
# opt freq B3LYP/6-31G(d) empiricaldispersion=gd3bj scf=xqc

CID_82694668_JID_3921_neutraal

0 1
C          1.07229        0.06624        0.01966
C          0.08853        0.43970       -1.07843
C          0.78185        0.82644       -2.34143
C          1.15484        2.07461       -2.79788
C          1.74400        1.85575       -4.06149
N          1.74209        0.55737       -4.38132
N          1.17786       -0.04953       -3.32056
C          1.03038       -1.49489       -3.35884
C         -0.11404       -1.93141       -4.25664
C          0.31045       -1.92997       -5.70068
O          0.33620       -2.95384       -6.37975
C          2.30305        2.86804       -5.00269
C          3.82302        2.84539       -5.05227
H          1.69251       -0.78814       -0.27057
H          0.53457       -0.20047        0.93501
H          1.74212        0.90162        0.25095
H         -0.60420       -0.39013       -1.25780
H         -0.52549        1.28076       -0.73342
H          1.01083        3.01901       -2.29134
H          1.99164       -1.90874       -3.68646
H          0.85785       -1.84239       -2.33632
H         -0.40958       -2.95472       -3.99912
H         -0.99356       -1.28767       -4.15221
H          0.56872       -0.95347       -6.14218
H          1.90274        2.69143       -6.00842
H          1.97016        3.86962       -4.70483
H          4.19434        1.87497       -5.39898
H          4.19150        3.61359       -5.73950
H          4.25392        3.03613       -4.06362

--Link1--
%chk=JID_3921.chk
%mem=8GB
%nprocshared=4
# B3LYP/6-311++G(d,p) empiricaldispersion=gd3bj scf=xqc pop=npa geom=check

CID_82694668_JID_3921_Energie_neutraal

0 1

--Link1--
%chk=JID_3921.chk
%mem=8GB
%nprocshared=4
# B3LYP/6-311++G(d,p) empiricaldispersion=gd3bj scf=xqc pop=npa geom=check

CID_82694668_JID_3921_Energie_kation

1 2

--Link1--
%chk=JID_3921.chk
%mem=8GB
%nprocshared=4
# B3LYP/6-311++G(d,p) empiricaldispersion=gd3bj scf=xqc pop=npa geom=check

CID_82694668_JID_3921_Energie_anion

-1 2
