%chk=JID_9122.chk
%mem=8GB
%nprocshared=4
# opt freq B3LYP/6-31G(d) empiricaldispersion=gd3bj scf=xqc

CID_79315086_JID_9122_neutraal

0 1
C          0.92283        0.06105       -0.01785
C          0.46604        1.51668       -0.02862
C          1.00315        2.32048       -1.21886
N          0.43451        1.84821       -2.48056
C          1.08837        2.45879       -3.67021
C          2.54138        2.02032       -3.92605
C          2.94280        0.55649       -3.65335
N          2.73142       -0.39655       -4.74628
C          3.80183       -1.38762       -4.79023
C          1.39493       -1.01535       -4.86279
C          0.78718       -1.81225       -3.66679
C         -0.71624       -1.50534       -3.54717
C         -1.28679       -2.62829       -2.69633
C         -0.22751       -3.71506       -2.73775
N          0.69714       -3.28337       -3.79379
C          1.96518       -3.98506       -3.68651
C          0.19113        2.29153       -4.91822
O          0.57446        2.39796       -6.07729
N         -1.13505        2.10677       -4.63810
H          0.45433       -0.50993       -0.82175
H          0.63649       -0.41200        0.92712
H          2.00992       -0.01369       -0.11810
H         -0.62998        1.55476       -0.00898
H          0.81364        1.99567        0.89465
H          0.73590        3.37418       -1.07873
H          2.09628        2.25282       -1.21836
H          0.53792        0.84015       -2.55126
H          1.09483        3.54859       -3.52007
H          2.84954        2.28968       -4.94441
H          3.17395        2.63699       -3.27103
H          4.02704        0.61950       -3.47584
H          2.55022        0.18970       -2.70190
H          3.87302       -1.95708       -3.85890
H          3.67054       -2.07798       -5.62999
H          4.76868       -0.89826       -4.95714
H          0.70501       -0.21063       -5.12609
H          1.38564       -1.65607       -5.75548
H          1.28291       -1.54844       -2.72657
H         -1.19888       -1.51903       -4.53382
H         -0.92377       -0.53298       -3.09758
H         -2.24372       -2.97179       -3.10310
H         -1.45599       -2.29285       -1.66711
H         -0.66584       -4.69326       -2.95989
H          0.27041       -3.77436       -1.76097
H          2.57767       -3.81081       -4.57321
H          2.52945       -3.69536       -2.79323
H          1.80199       -5.06835       -3.64527
H         -1.41486        1.98865       -3.67087
H         -1.79089        1.98213       -5.39460

--Link1--
%chk=JID_9122.chk
%mem=8GB
%nprocshared=4
# B3LYP/6-311++G(d,p) empiricaldispersion=gd3bj scf=xqc pop=npa geom=check

CID_79315086_JID_9122_Energie_neutraal

0 1

--Link1--
%chk=JID_9122.chk
%mem=8GB
%nprocshared=4
# B3LYP/6-311++G(d,p) empiricaldispersion=gd3bj scf=xqc pop=npa geom=check

CID_79315086_JID_9122_Energie_kation

1 2

--Link1--
%chk=JID_9122.chk
%mem=8GB
%nprocshared=4
# B3LYP/6-311++G(d,p) empiricaldispersion=gd3bj scf=xqc pop=npa geom=check

CID_79315086_JID_9122_Energie_anion

-1 2
