%chk=JID_7584.chk
%mem=8GB
%nprocshared=4
# opt freq B3LYP/6-31G(d) empiricaldispersion=gd3bj scf=xqc

CID_119171646_JID_7584_neutraal

0 1
C          1.36700        0.70100        0.00100
C          1.09085        0.16673       -1.23707
S          0.28581       -1.33665       -1.12230
C          0.28469       -1.27910        0.59026
C          0.90580       -0.13649        1.05675
C         -0.32156       -2.39630        1.38935
C         -1.59222       -1.97721        2.13611
C         -2.79692       -1.64008        1.24853
C         -3.28792       -2.76059        0.32140
C         -3.64229       -4.07452        1.01994
C         -4.86042       -3.97812        1.92082
O         -5.61740       -3.01036        1.93283
N         -5.14555       -5.04508        2.72335
C         -4.31916       -6.21850        2.97078
C         -3.31977       -6.05028        4.10931
O         -2.50854       -6.89159        4.46460
O         -3.39267       -4.86764        4.75064
H          1.87554        1.64660        0.14236
H          1.32517        0.58466       -2.20635
H          1.02026        0.09176        2.10969
H         -0.51720       -3.27483        0.76420
H          0.42150       -2.71946        2.13049
H         -1.86924       -2.77729        2.83260
H         -1.37579       -1.10231        2.76288
H         -3.61966       -1.32707        1.90220
H         -2.56107       -0.76279        0.63397
H         -4.16324       -2.39240       -0.22852
H         -2.52178       -2.96580       -0.43466
H         -3.87073       -4.82382        0.25224
H         -2.78344       -4.43765        1.59092
H         -5.90741       -4.85889        3.36489
H         -5.00176       -7.02947        3.24121
H         -3.77301       -6.48434        2.06255
H         -2.70947       -4.92057        5.45123

--Link1--
%chk=JID_7584.chk
%mem=8GB
%nprocshared=4
# B3LYP/6-311++G(d,p) empiricaldispersion=gd3bj scf=xqc pop=npa geom=check

CID_119171646_JID_7584_Energie_neutraal

0 1

--Link1--
%chk=JID_7584.chk
%mem=8GB
%nprocshared=4
# B3LYP/6-311++G(d,p) empiricaldispersion=gd3bj scf=xqc pop=npa geom=check

CID_119171646_JID_7584_Energie_kation

1 2

--Link1--
%chk=JID_7584.chk
%mem=8GB
%nprocshared=4
# B3LYP/6-311++G(d,p) empiricaldispersion=gd3bj scf=xqc pop=npa geom=check

CID_119171646_JID_7584_Energie_anion

-1 2
