%chk=JID_9976.chk
%mem=8GB
%nprocshared=4
# opt freq B3LYP/6-31G(d) empiricaldispersion=gd3bj scf=xqc

CID_113637663_JID_9976_neutraal

0 1
C          2.49200        0.00400       -0.01400
C          1.01470       -0.26803        0.02404
C          0.45456       -1.55198       -0.10587
C         -0.93731       -1.73869       -0.03320
C         -1.79397       -0.65202        0.13043
C         -1.23876        0.61616        0.31201
C          0.14457        0.80894        0.24891
N         -3.21081       -0.77623        0.31588
S         -4.08896       -1.97010       -0.46282
O         -5.48441       -1.65983       -0.25677
O         -3.56143       -2.17571       -1.78967
N         -3.72285       -3.33622        0.44936
C         -4.16895       -3.31512        1.84927
C         -3.64312       -4.34535        2.81045
C         -3.24515       -2.90699        2.95991
S          1.45838       -3.00436       -0.32020
O          2.66153       -2.88557        0.46888
O          0.62568       -4.18385       -0.25993
N          1.92639       -2.87636       -1.92750
H          2.96214       -0.31711        0.92012
H          2.96623       -0.49523       -0.86328
H          2.69361        1.07437       -0.13460
H         -1.33615       -2.74557       -0.10934
H         -1.87433        1.47644        0.50689
H          0.53865        1.81480        0.38635
H         -3.71794        0.10211        0.21744
H         -4.04858       -4.16186       -0.05513
H         -5.22219       -3.06139        1.95272
H         -4.33096       -4.75969        3.53760
H         -2.88829       -5.04046        2.46148
H         -2.22607       -2.63700        2.71114
H         -3.66577       -2.34144        3.78249
H          2.94237       -2.81820       -1.99216
H          1.52095       -3.64333       -2.46540

--Link1--
%chk=JID_9976.chk
%mem=8GB
%nprocshared=4
# B3LYP/6-311++G(d,p) empiricaldispersion=gd3bj scf=xqc pop=npa geom=check

CID_113637663_JID_9976_Energie_neutraal

0 1

--Link1--
%chk=JID_9976.chk
%mem=8GB
%nprocshared=4
# B3LYP/6-311++G(d,p) empiricaldispersion=gd3bj scf=xqc pop=npa geom=check

CID_113637663_JID_9976_Energie_kation

1 2

--Link1--
%chk=JID_9976.chk
%mem=8GB
%nprocshared=4
# B3LYP/6-311++G(d,p) empiricaldispersion=gd3bj scf=xqc pop=npa geom=check

CID_113637663_JID_9976_Energie_anion

-1 2
