%chk=JID_6230.chk
%mem=8GB
%nprocshared=4
# opt freq B3LYP/6-31G(d) empiricaldispersion=gd3bj scf=xqc

CID_147651777_JID_6230_neutraal

0 1
C          1.04587        0.05764       -0.06762
C          0.43997        0.31228        1.30840
C          0.58744        1.77297        1.74746
C         -0.14427        2.83610        0.91389
O         -1.56762        2.72592        0.83086
C         -2.08929        1.97404       -0.26988
C         -1.76597        2.51128       -1.64328
C         -1.55392        1.61477       -2.70271
C         -1.25600        2.08285       -3.98233
C         -1.17950        3.45275       -4.22036
C         -1.41254        4.35414       -3.18257
C         -1.71498        3.88694       -1.90203
C          0.37690        1.95908        3.24986
O          1.30125        2.36522        3.96256
N         -0.83092        1.68794        3.84403
N         -1.97758        1.24607        3.17629
H          0.56965        0.65657       -0.84525
H          0.92947       -0.99672       -0.33818
H          2.11641        0.28713       -0.06956
H         -0.60251       -0.01387        1.31583
H          0.95418       -0.33384        2.03189
H          1.65622        2.00832        1.61658
H          0.04142        3.81229        1.37895
H          0.30254        2.89769       -0.08382
H         -1.77918        0.93149       -0.17851
H         -3.18015        1.98005       -0.16125
H         -1.61110        0.54104       -2.53480
H         -1.08326        1.37833       -4.79181
H         -0.94266        3.81810       -5.21609
H         -1.35797        5.42317       -3.37079
H         -1.89685        4.60057       -1.10109
H         -0.83900        1.80888        4.85569
H         -2.78658        1.36560        3.79052
H         -2.15292        1.89446        2.39350

--Link1--
%chk=JID_6230.chk
%mem=8GB
%nprocshared=4
# B3LYP/6-311++G(d,p) empiricaldispersion=gd3bj scf=xqc pop=npa geom=check

CID_147651777_JID_6230_Energie_neutraal

0 1

--Link1--
%chk=JID_6230.chk
%mem=8GB
%nprocshared=4
# B3LYP/6-311++G(d,p) empiricaldispersion=gd3bj scf=xqc pop=npa geom=check

CID_147651777_JID_6230_Energie_kation

1 2

--Link1--
%chk=JID_6230.chk
%mem=8GB
%nprocshared=4
# B3LYP/6-311++G(d,p) empiricaldispersion=gd3bj scf=xqc pop=npa geom=check

CID_147651777_JID_6230_Energie_anion

-1 2
