%chk=JID_10124.chk
%mem=8GB
%nprocshared=4
# opt freq B3LYP/6-31G(d) empiricaldispersion=gd3bj scf=xqc

CID_139769310_JID_10124_neutraal

0 1
C          1.04803        0.08516       -0.02100
C          0.71803       -1.28226        0.57553
C          0.95177       -1.31622        2.10504
N          0.07975       -0.40666        2.83671
C         -0.83061       -0.67194        3.81565
O         -1.43763        0.27409        4.32150
C         -1.08838       -2.10286        4.25347
C         -1.90076       -2.91028        3.26849
C         -3.03436       -2.36554        2.64259
C         -3.80878       -3.07731        1.69092
C         -3.40831       -4.39888        1.41254
C         -2.31556       -4.97096        2.08572
C         -1.56446       -4.23416        2.99884
O         -4.14063       -5.15575        0.53829
C         -3.37049       -5.95015       -0.36062
C         -4.99627       -2.33315        1.03126
C         -5.99443       -1.88483        2.12527
C         -4.46337       -1.08072        0.29178
C         -5.81876       -3.12548       -0.00847
N         -0.65915       -1.61907        0.20598
H          0.37676        0.86940        0.34581
H          0.96636        0.06280       -1.11379
H          2.07436        0.37689        0.22646
H          1.38387       -2.02228        0.11624
H          0.83250       -2.33788        2.47287
H          1.97945       -1.00890        2.32906
H          0.17392        0.58537        2.65169
H         -0.12408       -2.58002        4.46279
H         -1.62790       -2.07593        5.20841
H         -3.31431       -1.34302        2.89803
H         -2.04691       -6.01065        1.92219
H         -0.72403       -4.70887        3.49972
H         -2.48583       -5.41708       -0.72685
H         -3.08846       -6.89697        0.11002
H         -4.00200       -6.18299       -1.22341
H         -5.54995       -1.18206        2.83785
H         -6.86272       -1.37947        1.68596
H         -6.36259       -2.74528        2.69631
H         -3.73527       -1.36102       -0.47862
H         -5.27657       -0.53622       -0.20261
H         -3.97271       -0.37008        0.96532
H         -5.20406       -3.43760       -0.86011
H         -6.29158       -4.00878        0.43471
H         -6.62979       -2.51117       -0.41955
H         -0.90829       -2.53427        0.58632
H         -1.29523       -0.97304        0.67833

--Link1--
%chk=JID_10124.chk
%mem=8GB
%nprocshared=4
# B3LYP/6-311++G(d,p) empiricaldispersion=gd3bj scf=xqc pop=npa geom=check

CID_139769310_JID_10124_Energie_neutraal

0 1

--Link1--
%chk=JID_10124.chk
%mem=8GB
%nprocshared=4
# B3LYP/6-311++G(d,p) empiricaldispersion=gd3bj scf=xqc pop=npa geom=check

CID_139769310_JID_10124_Energie_kation

1 2

--Link1--
%chk=JID_10124.chk
%mem=8GB
%nprocshared=4
# B3LYP/6-311++G(d,p) empiricaldispersion=gd3bj scf=xqc pop=npa geom=check

CID_139769310_JID_10124_Energie_anion

-1 2
