%chk=JID_6005.chk
%mem=8GB
%nprocshared=4
# opt freq B3LYP/6-31G(d) empiricaldispersion=gd3bj scf=xqc

CID_140079416_JID_6005_neutraal

0 1
C         -0.31100        1.37300        0.31600
C         -1.33573        0.38985       -0.24825
C         -1.09173       -1.05061        0.23943
C          0.36504       -1.40659        0.29074
C          1.36648       -0.51831        0.14317
C          1.11768        0.95465       -0.04016
C          2.78811       -0.93093        0.16789
O          3.74029       -0.17660        0.07107
O          2.96687       -2.25654        0.28630
N         -1.59886       -1.21284        1.59956
C         -2.61660       -2.12858        1.87348
C         -3.52232       -1.85089        2.90745
C         -4.53623       -2.75155        3.24844
C         -4.64440       -3.96415        2.57570
C         -3.73096       -4.27749        1.57413
C         -2.72092       -3.37035        1.23555
H         -0.50573        2.37876       -0.07378
H         -0.41485        1.43356        1.40644
H         -2.34903        0.71918        0.01193
H         -1.26953        0.41085       -1.34429
H         -1.59385       -1.71493       -0.47296
H          0.57875       -2.46097        0.44929
H          1.32032        1.21382       -1.08699
H          1.80876        1.54130        0.57688
H          3.94035       -2.35937        0.28867
H         -1.71629       -0.33379        2.09267
H         -3.45154       -0.91718        3.45939
H         -5.23373       -2.50603        4.04456
H         -5.42678       -4.66937        2.84194
H         -3.79158       -5.23421        1.06235
H         -2.00029       -3.66834        0.47981

--Link1--
%chk=JID_6005.chk
%mem=8GB
%nprocshared=4
# B3LYP/6-311++G(d,p) empiricaldispersion=gd3bj scf=xqc pop=npa geom=check

CID_140079416_JID_6005_Energie_neutraal

0 1

--Link1--
%chk=JID_6005.chk
%mem=8GB
%nprocshared=4
# B3LYP/6-311++G(d,p) empiricaldispersion=gd3bj scf=xqc pop=npa geom=check

CID_140079416_JID_6005_Energie_kation

1 2

--Link1--
%chk=JID_6005.chk
%mem=8GB
%nprocshared=4
# B3LYP/6-311++G(d,p) empiricaldispersion=gd3bj scf=xqc pop=npa geom=check

CID_140079416_JID_6005_Energie_anion

-1 2
