%chk=JID_10760.chk
%mem=8GB
%nprocshared=4
# opt freq B3LYP/6-31G(d) empiricaldispersion=gd3bj scf=xqc

CID_65333545_JID_10760_neutraal

0 1
C          3.01200        1.14900        0.45800
C          3.27676       -0.18440       -0.26235
C          2.18357       -1.26994       -0.01411
C          0.85178       -0.61314        0.14880
C          0.59041        0.74503        0.14884
C          1.67184        1.75899        0.00950
C         -0.81111        0.91921        0.31329
C         -1.67185        2.03365        0.33475
C         -3.04369        1.83762        0.53297
C         -3.55903        0.55701        0.72170
C         -2.72348       -0.56375        0.71834
C         -1.35617       -0.35119        0.50723
N         -0.31465       -1.25075        0.46929
N          2.22464       -2.14779       -1.17709
C          1.72462       -3.50250       -1.03919
C          0.36071       -3.79898       -1.68545
C          0.14118       -3.22399       -3.08198
C          1.21436       -3.64943       -4.04101
O          1.56862       -4.79393       -4.26801
O          1.78850       -2.60756       -4.67004
H          3.00492        0.98059        1.54243
H          3.82351        1.85377        0.24467
H          3.35951        0.03967       -1.33606
H          4.25427       -0.58185        0.03927
H          2.44534       -1.80807        0.90543
H          1.45245        2.64497        0.61507
H          1.73762        2.07750       -1.03760
H         -1.27884        3.03521        0.19034
H         -3.71156        2.69529        0.54098
H         -4.62742        0.42629        0.87748
H         -3.12680       -1.55888        0.87274
H         -0.40950       -2.23983        0.64296
H          1.88664       -1.66024       -2.00333
H          2.46353       -4.15675       -1.51832
H          1.70342       -3.81988        0.01053
H          0.24600       -4.89009       -1.73037
H         -0.44905       -3.44560       -1.04262
H         -0.81942       -3.56424       -3.48498
H          0.08561       -2.13042       -3.04070
H          2.47101       -3.01770       -5.24150

--Link1--
%chk=JID_10760.chk
%mem=8GB
%nprocshared=4
# B3LYP/6-311++G(d,p) empiricaldispersion=gd3bj scf=xqc pop=npa geom=check

CID_65333545_JID_10760_Energie_neutraal

0 1

--Link1--
%chk=JID_10760.chk
%mem=8GB
%nprocshared=4
# B3LYP/6-311++G(d,p) empiricaldispersion=gd3bj scf=xqc pop=npa geom=check

CID_65333545_JID_10760_Energie_kation

1 2

--Link1--
%chk=JID_10760.chk
%mem=8GB
%nprocshared=4
# B3LYP/6-311++G(d,p) empiricaldispersion=gd3bj scf=xqc pop=npa geom=check

CID_65333545_JID_10760_Energie_anion

-1 2
