%chk=JID_3491.chk
%mem=8GB
%nprocshared=4
# opt freq B3LYP/6-31G(d) empiricaldispersion=gd3bj scf=xqc

CID_144584891_JID_3491_neutraal

0 1
C          1.01769       -0.09646        0.01954
C          0.49183        1.30653       -0.27494
C         -0.33053        1.34857       -1.57630
C         -0.18335        2.79483       -2.07844
C          0.89795        3.42763       -1.19737
N          1.55744        2.26941       -0.57761
C          2.44812        2.62709        0.52394
C          1.83362        3.56197        1.56384
C          1.26289        4.80754        0.89825
C          0.27407        4.41093       -0.18959
C         -1.78500        0.90567       -1.36763
N         -2.51734        0.87308       -2.63646
C         -3.89723        0.45230       -2.43699
H          0.19443       -0.81258        0.10676
H          1.57202       -0.12467        0.96281
H          1.68472       -0.45060       -0.77436
H         -0.12127        1.64258        0.57093
H          0.13464        0.68530       -2.32109
H         -1.12390        3.35509       -2.03675
H          0.14128        2.77863       -3.12617
H          1.61795        3.97184       -1.82077
H          3.32784        3.12254        0.09207
H          2.84208        1.73271        1.01819
H          2.59828        3.85402        2.29265
H          1.04526        3.04211        2.12107
H          0.76755        5.43833        1.64446
H          2.07547        5.40055        0.46124
H         -0.61341        3.96972        0.28250
H         -0.06961        5.30868       -0.71738
H         -1.79692       -0.09535       -0.92157
H         -2.28010        1.58749       -0.66475
H         -2.50515        1.79502       -3.07045
H         -4.43743        1.14445       -1.78302
H         -4.41367        0.42763       -3.40155
H         -3.94655       -0.55540       -2.01190

--Link1--
%chk=JID_3491.chk
%mem=8GB
%nprocshared=4
# B3LYP/6-311++G(d,p) empiricaldispersion=gd3bj scf=xqc pop=npa geom=check

CID_144584891_JID_3491_Energie_neutraal

0 1

--Link1--
%chk=JID_3491.chk
%mem=8GB
%nprocshared=4
# B3LYP/6-311++G(d,p) empiricaldispersion=gd3bj scf=xqc pop=npa geom=check

CID_144584891_JID_3491_Energie_kation

1 2

--Link1--
%chk=JID_3491.chk
%mem=8GB
%nprocshared=4
# B3LYP/6-311++G(d,p) empiricaldispersion=gd3bj scf=xqc pop=npa geom=check

CID_144584891_JID_3491_Energie_anion

-1 2
