%chk=JID_8056.chk
%mem=8GB
%nprocshared=4
# opt freq B3LYP/6-31G(d) empiricaldispersion=gd3bj scf=xqc

CID_64625643_JID_8056_neutraal

0 1
C          0.97839        0.03494        0.09117
C         -0.14666        1.05125       -0.07356
N          0.41019        2.31783       -0.54884
C         -0.60601        3.38398       -0.75968
C         -1.43507        3.09528       -2.02257
C         -0.59456        3.12777       -3.29973
C          0.16623        4.45636       -3.49900
C          0.92344        4.85877       -2.20634
C          0.12943        4.75102       -0.88280
S         -0.76568        6.34254       -0.54198
C         -2.44027        5.86981       -0.20344
N         -3.31542        6.04376       -1.21008
C         -4.59339        5.75236       -0.94144
N         -5.06708        5.30705        0.22978
C         -4.15783        5.16871        1.21039
C         -2.82016        5.44632        1.05150
C         -0.80102        5.56236       -3.95890
C          1.19973        4.26414       -4.62978
H          1.48212       -0.15337       -0.86303
H          0.57566       -0.91614        0.45412
H          1.72587        0.38147        0.81284
H         -0.87440        0.64292       -0.78036
H         -0.64725        1.19343        0.89081
H          1.10989        2.63375        0.12338
H         -1.25171        3.39475        0.12326
H         -2.25051        3.81642       -2.11182
H         -1.93256        2.12200       -1.94835
H         -1.24825        2.93586       -4.16032
H          0.11792        2.29302       -3.27379
H          1.79023        4.18881       -2.10711
H          1.36019        5.86033       -2.31907
H          0.87862        4.77880       -0.07938
H         -5.30855        5.89123       -1.74494
H         -4.55205        4.82333        2.16162
H         -2.12043        5.34186        1.86858
H         -1.64057        5.69672       -3.27697
H         -0.28567        6.52490       -4.05160
H         -1.23030        5.32441       -4.93937
H          1.75728        5.18881       -4.81664
H          1.92545        3.48265       -4.37780
H          0.71210        3.97109       -5.56663

--Link1--
%chk=JID_8056.chk
%mem=8GB
%nprocshared=4
# B3LYP/6-311++G(d,p) empiricaldispersion=gd3bj scf=xqc pop=npa geom=check

CID_64625643_JID_8056_Energie_neutraal

0 1

--Link1--
%chk=JID_8056.chk
%mem=8GB
%nprocshared=4
# B3LYP/6-311++G(d,p) empiricaldispersion=gd3bj scf=xqc pop=npa geom=check

CID_64625643_JID_8056_Energie_kation

1 2

--Link1--
%chk=JID_8056.chk
%mem=8GB
%nprocshared=4
# B3LYP/6-311++G(d,p) empiricaldispersion=gd3bj scf=xqc pop=npa geom=check

CID_64625643_JID_8056_Energie_anion

-1 2
