%chk=JID_7468.chk
%mem=8GB
%nprocshared=4
# opt freq B3LYP/6-31G(d) empiricaldispersion=gd3bj scf=xqc

CID_136990393_JID_7468_neutraal

0 1
C          0.94596        0.05698        0.06191
N          0.61340        0.19346       -1.33984
C         -0.27202       -0.62850       -1.97165
N         -0.00095       -1.05940       -3.16189
C         -0.90745       -1.93499       -3.78322
C         -2.09880       -2.36117       -3.18090
C         -2.93681       -3.29153       -3.82478
C         -2.60829       -3.74513       -5.11129
C         -1.41632       -3.32038       -5.70515
C         -0.57529       -2.42225       -5.04792
O         -3.31325       -4.64450       -5.86690
C         -4.73218       -4.55118       -5.78956
O         -4.08047       -3.73820       -3.21658
C         -3.79530       -4.83635       -2.34661
C         -2.38933       -1.79339       -1.84471
O         -3.40633       -2.02575       -1.20239
N         -1.42193       -0.96971       -1.32581
H          1.31515       -0.95076        0.27601
H          0.08072        0.26524        0.69800
H          1.73116        0.77269        0.32353
H          1.43832        0.31075       -1.92432
H         -1.14292       -3.68848       -6.69146
H          0.34877       -2.09953       -5.52131
H         -5.11159       -5.18544       -4.98371
H         -5.08198       -3.51871       -5.68365
H         -5.13909       -4.94251       -6.72737
H         -2.86237       -4.70908       -1.78572
H         -4.61517       -4.91318       -1.62634
H         -3.75467       -5.76599       -2.92273
H         -1.63588       -0.55583       -0.43432

--Link1--
%chk=JID_7468.chk
%mem=8GB
%nprocshared=4
# B3LYP/6-311++G(d,p) empiricaldispersion=gd3bj scf=xqc pop=npa geom=check

CID_136990393_JID_7468_Energie_neutraal

0 1

--Link1--
%chk=JID_7468.chk
%mem=8GB
%nprocshared=4
# B3LYP/6-311++G(d,p) empiricaldispersion=gd3bj scf=xqc pop=npa geom=check

CID_136990393_JID_7468_Energie_kation

1 2

--Link1--
%chk=JID_7468.chk
%mem=8GB
%nprocshared=4
# B3LYP/6-311++G(d,p) empiricaldispersion=gd3bj scf=xqc pop=npa geom=check

CID_136990393_JID_7468_Energie_anion

-1 2
