%chk=JID_7787.chk
%mem=8GB
%nprocshared=4
# opt freq B3LYP/6-31G(d) empiricaldispersion=gd3bj scf=xqc

CID_56622110_JID_7787_neutraal

0 1
C          1.34400       -0.22500        0.03600
C          0.85663        0.73711       -0.84754
C         -0.51528        0.98595       -0.92718
C         -1.41290        0.27620       -0.11913
C         -0.91095       -0.68595        0.76871
C          0.46015       -0.93525        0.84501
C         -2.89895        0.52786       -0.20909
C         -3.47085        1.28478        0.99991
C         -3.10597        2.78388        1.02970
C         -3.87940        3.58706       -0.00952
O         -4.64240        3.10879       -0.84452
C         -3.32046        3.41696        2.39885
C         -2.35741        4.30026        2.91376
C         -2.55061        4.92561        4.14707
C         -3.70674        4.67697        4.88242
C         -4.67340        3.80787        4.38267
C         -4.48649        3.18723        3.14576
H          2.41130       -0.42103        0.09287
H          1.54564        1.28993       -1.48084
H         -0.87890        1.73142       -1.63087
H         -1.58914       -1.25507        1.40089
H          0.83711       -1.68764        1.53269
H         -3.13559        1.04659       -1.14479
H         -3.39863       -0.44718       -0.28265
H         -4.56276        1.17223        0.97492
H         -3.13157        0.80000        1.92465
H         -2.04584        2.89313        0.77136
H         -3.67401        4.67256       -0.01013
H         -1.44564        4.51115        2.35825
H         -1.79800        5.60786        4.53422
H         -3.85582        5.16191        5.84362
H         -5.57755        3.61504        4.95480
H         -5.26601        2.52544        2.77413

--Link1--
%chk=JID_7787.chk
%mem=8GB
%nprocshared=4
# B3LYP/6-311++G(d,p) empiricaldispersion=gd3bj scf=xqc pop=npa geom=check

CID_56622110_JID_7787_Energie_neutraal

0 1

--Link1--
%chk=JID_7787.chk
%mem=8GB
%nprocshared=4
# B3LYP/6-311++G(d,p) empiricaldispersion=gd3bj scf=xqc pop=npa geom=check

CID_56622110_JID_7787_Energie_kation

1 2

--Link1--
%chk=JID_7787.chk
%mem=8GB
%nprocshared=4
# B3LYP/6-311++G(d,p) empiricaldispersion=gd3bj scf=xqc pop=npa geom=check

CID_56622110_JID_7787_Energie_anion

-1 2
