%chk=JID_10334.chk
%mem=8GB
%nprocshared=4
# opt freq B3LYP/6-31G(d) empiricaldispersion=gd3bj scf=xqc

CID_58817638_JID_10334_neutraal

0 1
C          1.03318        0.09082       -0.02549
C          0.08899        0.52248        1.08431
N          0.77583        1.30615        2.10299
C          1.39257        0.62401        3.22445
C          2.60702        1.39733        3.70220
N          2.23453        2.74606        4.09202
C          1.48672        3.48183        3.16499
O          1.22203        4.67651        3.26363
C          0.83952        2.69556        1.99093
O          0.40138        3.30816        1.02415
C          3.20206        3.42643        4.80483
O          4.39853        3.20441        4.60339
N          2.77120        4.29400        5.80011
C          3.73924        5.22893        6.36927
C          3.59108        5.35258        7.88190
C          2.14691        5.70600        8.26279
C          1.19951        4.64667        7.68309
C          1.37419        4.52869        6.16988
N          2.06916        5.80099        9.72688
C          0.84317        6.42977       10.19592
H          1.48150        0.95851       -0.52049
H          0.49448       -0.49283       -0.77815
H          1.84794       -0.52582        0.36757
H         -0.72033        1.12245        0.65348
H         -0.37005       -0.34903        1.56392
H          1.69324       -0.38266        2.91548
H          0.63781        0.53742        4.01400
H          3.35714        1.46174        2.90252
H          3.06774        0.88848        4.55721
H          3.56692        6.20036        5.88979
H          4.76545        4.93272        6.12937
H          4.28262        6.11992        8.25105
H          3.88267        4.40272        8.35009
H          1.91253        6.68571        7.82520
H          1.40151        3.67166        8.14600
H          0.15428        4.89536        7.89706
H          0.73411        3.71933        5.80725
H          1.05530        5.45927        5.68675
H          2.16466        4.87621       10.14558
H         -0.04068        5.82516        9.97342
H          0.89384        6.55176       11.28249
H          0.71546        7.42677        9.76213

--Link1--
%chk=JID_10334.chk
%mem=8GB
%nprocshared=4
# B3LYP/6-311++G(d,p) empiricaldispersion=gd3bj scf=xqc pop=npa geom=check

CID_58817638_JID_10334_Energie_neutraal

0 1

--Link1--
%chk=JID_10334.chk
%mem=8GB
%nprocshared=4
# B3LYP/6-311++G(d,p) empiricaldispersion=gd3bj scf=xqc pop=npa geom=check

CID_58817638_JID_10334_Energie_kation

1 2

--Link1--
%chk=JID_10334.chk
%mem=8GB
%nprocshared=4
# B3LYP/6-311++G(d,p) empiricaldispersion=gd3bj scf=xqc pop=npa geom=check

CID_58817638_JID_10334_Energie_anion

-1 2
