%chk=JID_8836.chk
%mem=8GB
%nprocshared=4
# opt freq B3LYP/6-31G(d) empiricaldispersion=gd3bj scf=xqc

CID_137766556_JID_8836_neutraal

0 1
C          1.06729        0.07392       -0.00283
O          0.95473        1.37324        0.57402
C          1.34300        1.48530        1.88395
C          0.35375        1.95765        2.78033
C          0.71086        2.27885        4.10322
C          2.01173        2.09004        4.55346
C          2.97219        1.57804        3.68657
C          2.65904        1.28763        2.34530
C          3.78496        0.73927        1.54917
O          4.66413        0.05208        2.04956
O          3.72592        1.11559        0.25234
C          4.72635        0.50779       -0.56760
C         -1.10840        2.07927        2.37975
C         -2.02290        1.09599        3.14030
C         -1.69037       -0.29944        2.81350
N         -1.40951       -1.40030        2.57098
C         -3.43274        1.39505        2.84181
N         -4.54181        1.65394        2.62737
H          0.05996       -0.27414       -0.25187
H          1.52777       -0.66631        0.66011
H          1.63592        0.14403       -0.93393
H         -0.02482        2.67819        4.79953
H          2.27873        2.33260        5.57961
H          3.98449        1.41924        4.05772
H          5.69625        0.97890       -0.38613
H          4.78203       -0.57233       -0.39010
H          4.44664        0.66168       -1.61314
H         -1.42146        3.11401        2.57783
H         -1.23557        1.94137        1.29873
H         -1.88462        1.23145        4.22110

--Link1--
%chk=JID_8836.chk
%mem=8GB
%nprocshared=4
# B3LYP/6-311++G(d,p) empiricaldispersion=gd3bj scf=xqc pop=npa geom=check

CID_137766556_JID_8836_Energie_neutraal

0 1

--Link1--
%chk=JID_8836.chk
%mem=8GB
%nprocshared=4
# B3LYP/6-311++G(d,p) empiricaldispersion=gd3bj scf=xqc pop=npa geom=check

CID_137766556_JID_8836_Energie_kation

1 2

--Link1--
%chk=JID_8836.chk
%mem=8GB
%nprocshared=4
# B3LYP/6-311++G(d,p) empiricaldispersion=gd3bj scf=xqc pop=npa geom=check

CID_137766556_JID_8836_Energie_anion

-1 2
