%chk=JID_8030.chk
%mem=8GB
%nprocshared=4
# opt freq B3LYP/6-31G(d) empiricaldispersion=gd3bj scf=xqc

CID_22506781_JID_8030_neutraal

0 1
C          0.92568        0.05906       -0.03143
S          0.22181       -1.24466       -1.01282
O          0.54565       -2.48605       -0.32847
O         -1.16412       -0.91067       -1.28086
C          1.15961       -1.24459       -2.54155
C          0.85576       -0.07266       -3.43884
C          0.04984       -0.18649       -4.51327
C         -0.22444        0.93353       -5.48346
N          0.21895        2.23896       -4.99115
C          1.56560        2.16803       -4.42534
C          1.58059        1.23191       -3.20091
C          0.02533        3.32517       -5.95946
C          0.94353        3.34509       -7.16471
C          2.15982        4.04487       -7.12095
C          3.01194        4.06366       -8.22629
C          2.65732        3.38680       -9.39083
C          1.44917        2.69530       -9.45251
C          0.59543        2.67678       -8.34758
H          0.57615       -0.06947        0.99583
H          0.58550        1.02325       -0.40557
H          2.01358       -0.01951       -0.06179
H          2.22282       -1.29143       -2.28664
H          0.90796       -2.18847       -3.03996
H         -0.44551       -1.12975       -4.73280
H         -1.30529        0.96788       -5.66442
H          0.26297        0.66634       -6.42761
H          2.29143        1.80879       -5.16642
H          1.89737        3.15896       -4.09229
H          2.62343        1.03796       -2.92502
H          1.10759        1.75304       -2.36302
H         -1.01727        3.32513       -6.30578
H          0.12708        4.28285       -5.43090
H          2.44946        4.58210       -6.22066
H          3.95140        4.60804       -8.17863
H          3.32062        3.40122      -10.25161
H          1.17030        2.17089      -10.36282
H         -0.34612        2.13663       -8.41550

--Link1--
%chk=JID_8030.chk
%mem=8GB
%nprocshared=4
# B3LYP/6-311++G(d,p) empiricaldispersion=gd3bj scf=xqc pop=npa geom=check

CID_22506781_JID_8030_Energie_neutraal

0 1

--Link1--
%chk=JID_8030.chk
%mem=8GB
%nprocshared=4
# B3LYP/6-311++G(d,p) empiricaldispersion=gd3bj scf=xqc pop=npa geom=check

CID_22506781_JID_8030_Energie_kation

1 2

--Link1--
%chk=JID_8030.chk
%mem=8GB
%nprocshared=4
# B3LYP/6-311++G(d,p) empiricaldispersion=gd3bj scf=xqc pop=npa geom=check

CID_22506781_JID_8030_Energie_anion

-1 2
