%chk=JID_10322.chk
%mem=8GB
%nprocshared=4
# opt freq B3LYP/6-31G(d) empiricaldispersion=gd3bj scf=xqc

CID_5346030_JID_10322_neutraal

0 1
C          0.96224        0.06924       -0.06148
O          0.21185       -1.13851       -0.04843
C          0.77860       -2.21498        0.57545
C         -0.00367       -3.37333        0.56313
C          0.45360       -4.54880        1.16303
C          1.71221       -4.57700        1.76925
C          2.48937       -3.41362        1.80665
C          2.02504       -2.23771        1.20414
C          2.15705       -5.83705        2.41088
O          1.35001       -6.53136        3.02255
C          3.57521       -6.27521        2.32713
C          4.40267       -5.98289        1.31210
C          5.79160       -6.45658        1.24227
C          6.77915       -5.58995        0.75554
C          8.11266       -6.00012        0.64657
C          8.46081       -7.29873        1.01576
C          7.48212       -8.17774        1.48532
C          6.15409       -7.76123        1.59396
O          8.96591       -5.04341        0.16833
C         10.33565       -5.40646        0.04727
H          0.37502        0.82204       -0.59616
H          1.90764       -0.05925       -0.59885
H          1.13181        0.43929        0.95506
H         -0.98148       -3.35829        0.08696
H         -0.17308       -5.43817        1.15573
H          3.45051       -3.40119        2.31473
H          2.65670       -1.35659        1.25157
H          3.87685       -6.92306        3.14467
H          4.08170       -5.36740        0.47545
H          6.52099       -4.57482        0.46139
H          9.48077       -7.66129        0.94555
H          7.75391       -9.19348        1.76239
H          5.40870       -8.47183        1.94388
H         10.76449       -5.66113        1.02214
H         10.46510       -6.22488       -0.66859
H         10.87865       -4.53815       -0.33826

--Link1--
%chk=JID_10322.chk
%mem=8GB
%nprocshared=4
# B3LYP/6-311++G(d,p) empiricaldispersion=gd3bj scf=xqc pop=npa geom=check

CID_5346030_JID_10322_Energie_neutraal

0 1

--Link1--
%chk=JID_10322.chk
%mem=8GB
%nprocshared=4
# B3LYP/6-311++G(d,p) empiricaldispersion=gd3bj scf=xqc pop=npa geom=check

CID_5346030_JID_10322_Energie_kation

1 2

--Link1--
%chk=JID_10322.chk
%mem=8GB
%nprocshared=4
# B3LYP/6-311++G(d,p) empiricaldispersion=gd3bj scf=xqc pop=npa geom=check

CID_5346030_JID_10322_Energie_anion

-1 2
