%chk=JID_4987.chk
%mem=8GB
%nprocshared=4
# opt freq B3LYP/6-31G(d) empiricaldispersion=gd3bj scf=xqc

CID_57282335_JID_4987_neutraal

0 1
C          0.91308       -0.02202       -0.04428
C          0.42711        0.71381        1.22545
C          0.92537        2.17379        1.14097
C          1.93248        2.69293        1.97591
C          2.36366        4.01799        1.85168
C          1.79846        4.85362        0.89333
C          0.80070        4.36703        0.05609
C          0.37145        3.04316        0.17677
C         -1.09972        0.63926        1.37562
C         -2.03840        0.00590        0.57481
C         -3.37411        0.16720        1.04462
C         -3.42773        0.91266        2.19813
S         -1.87917        1.41077        2.71449
N          1.00966       -0.04054        2.35004
H          0.48023        0.40333       -0.95799
H          0.64251       -1.08559       -0.02742
H          2.00417        0.03632       -0.14990
H          2.40315        2.08399        2.74212
H          3.14254        4.39732        2.50854
H          2.13316        5.88331        0.80164
H          0.35158        5.01668       -0.69059
H         -0.41552        2.69341       -0.48954
H         -1.78463       -0.55615       -0.31547
H         -4.25002       -0.24807        0.56170
H         -4.30394        1.18629        2.76941
H          2.02250       -0.02133        2.28343
H          0.74234        0.42890        3.21317

--Link1--
%chk=JID_4987.chk
%mem=8GB
%nprocshared=4
# B3LYP/6-311++G(d,p) empiricaldispersion=gd3bj scf=xqc pop=npa geom=check

CID_57282335_JID_4987_Energie_neutraal

0 1

--Link1--
%chk=JID_4987.chk
%mem=8GB
%nprocshared=4
# B3LYP/6-311++G(d,p) empiricaldispersion=gd3bj scf=xqc pop=npa geom=check

CID_57282335_JID_4987_Energie_kation

1 2

--Link1--
%chk=JID_4987.chk
%mem=8GB
%nprocshared=4
# B3LYP/6-311++G(d,p) empiricaldispersion=gd3bj scf=xqc pop=npa geom=check

CID_57282335_JID_4987_Energie_anion

-1 2
