%chk=JID_8133.chk
%mem=8GB
%nprocshared=4
# opt freq B3LYP/6-31G(d) empiricaldispersion=gd3bj scf=xqc

CID_106632022_JID_8133_neutraal

0 1
C          1.05776       -0.08039        0.01417
C          1.30277       -0.54902       -1.42260
C          2.46786       -1.54077       -1.49922
N          0.11651       -1.04993       -2.16195
C         -0.52607        0.06103       -2.92998
C         -0.56645       -0.21139       -4.46360
C         -1.48874       -1.39398       -4.81050
C         -1.48566       -1.68402       -6.30781
C         -0.05728       -1.88016       -6.80069
C          0.82135       -0.69578       -6.40878
N          0.80196       -0.43394       -4.97111
C         -0.92389       -1.77887       -1.38674
C         -0.63707       -3.27736       -1.10987
C         -1.93036       -4.10374       -1.07508
C         -1.53322       -5.41528       -0.40437
C         -0.32878       -5.08452        0.47259
C         -0.04653       -3.59550        0.26394
O          0.19696       -3.81118       -2.14370
H          0.80868       -0.90781        0.68348
H          0.24954        0.65757        0.05405
H          1.95722        0.40064        0.41482
H          1.69957        0.32533       -1.95706
H          2.28150       -2.46475       -0.95588
H          2.68952       -1.80153       -2.54020
H          3.37582       -1.09377       -1.07835
H         -1.54469        0.26352       -2.57180
H         -0.00144        1.01416       -2.77958
H         -0.96531        0.69445       -4.93953
H         -2.51263       -1.17693       -4.48428
H         -1.17003       -2.30144       -4.28424
H         -2.08202       -2.57867       -6.51810
H         -1.95216       -0.85014       -6.84624
H          0.35484       -2.80352       -6.37436
H         -0.05470       -2.00074       -7.88977
H          1.85397       -0.89256       -6.71739
H          0.50201        0.20404       -6.94840
H          1.18777       -1.23273       -4.46379
H         -1.22023       -1.24760       -0.47506
H         -1.83306       -1.78448       -2.00394
H         -2.69720       -3.60218       -0.47185
H         -2.34001       -4.28898       -2.07380
H         -1.25244       -6.16106       -1.15722
H         -2.36125       -5.83286        0.17709
H          0.53361       -5.68578        0.16196
H         -0.52002       -5.30691        1.52729
H          1.02407       -3.41094        0.34977
H         -0.55692       -3.02090        1.04644
H          0.55847       -3.02544       -2.60284

--Link1--
%chk=JID_8133.chk
%mem=8GB
%nprocshared=4
# B3LYP/6-311++G(d,p) empiricaldispersion=gd3bj scf=xqc pop=npa geom=check

CID_106632022_JID_8133_Energie_neutraal

0 1

--Link1--
%chk=JID_8133.chk
%mem=8GB
%nprocshared=4
# B3LYP/6-311++G(d,p) empiricaldispersion=gd3bj scf=xqc pop=npa geom=check

CID_106632022_JID_8133_Energie_kation

1 2

--Link1--
%chk=JID_8133.chk
%mem=8GB
%nprocshared=4
# B3LYP/6-311++G(d,p) empiricaldispersion=gd3bj scf=xqc pop=npa geom=check

CID_106632022_JID_8133_Energie_anion

-1 2
