%chk=JID_6083.chk
%mem=8GB
%nprocshared=4
# opt freq B3LYP/6-31G(d) empiricaldispersion=gd3bj scf=xqc

CID_80616812_JID_6083_neutraal

0 1
C          0.95953        0.09118       -0.00691
N         -0.39928        0.31249        0.43426
C         -1.41070        0.49332       -0.45309
N         -2.65790        0.17301       -0.17477
N         -3.52894        0.44003       -1.20891
C         -2.91728        0.95972       -2.25047
S         -1.23119        1.17722       -2.02669
C         -3.55981        1.37304       -3.48771
O         -3.01576        2.09593       -4.32959
N         -4.84580        0.97519       -3.79547
C         -5.68777       -0.05157       -3.19645
C         -6.98258        0.54416       -2.62991
C         -6.78701        1.25166       -1.30323
C         -6.84468        0.11883       -0.29746
O         -7.65490       -0.91446       -0.87882
C         -7.96035       -0.55003       -2.22992
H          1.35689        0.95837       -0.54414
H          1.02907       -0.79613       -0.64492
H          1.60106       -0.07249        0.86494
H         -0.66957       -0.24061        1.24326
H         -5.14150        1.34606       -4.69034
H         -5.93850       -0.72734       -4.02326
H         -5.14176       -0.65382       -2.46947
H         -7.42847        1.20843       -3.37928
H         -7.63438        1.92710       -1.12929
H         -5.87544        1.84881       -1.22594
H         -5.85620       -0.30498       -0.09981
H         -7.28133        0.43206        0.65529
H         -8.98921       -0.17250       -2.24134
H         -7.91733       -1.43773       -2.86791

--Link1--
%chk=JID_6083.chk
%mem=8GB
%nprocshared=4
# B3LYP/6-311++G(d,p) empiricaldispersion=gd3bj scf=xqc pop=npa geom=check

CID_80616812_JID_6083_Energie_neutraal

0 1

--Link1--
%chk=JID_6083.chk
%mem=8GB
%nprocshared=4
# B3LYP/6-311++G(d,p) empiricaldispersion=gd3bj scf=xqc pop=npa geom=check

CID_80616812_JID_6083_Energie_kation

1 2

--Link1--
%chk=JID_6083.chk
%mem=8GB
%nprocshared=4
# B3LYP/6-311++G(d,p) empiricaldispersion=gd3bj scf=xqc pop=npa geom=check

CID_80616812_JID_6083_Energie_anion

-1 2
