%chk=JID_3718.chk
%mem=8GB
%nprocshared=4
# opt freq B3LYP/6-31G(d) empiricaldispersion=gd3bj scf=xqc

CID_64048716_JID_3718_neutraal

0 1
C         -1.43100        0.32400       -0.23100
C         -0.93249       -1.09002        0.05450
C          0.47708       -1.31268       -0.49521
C          1.44846       -0.24967        0.03446
C          0.95047        1.17148       -0.25547
C         -0.46182        1.38007        0.29334
S          3.17033       -0.51551       -0.51727
C          2.99547       -0.59025       -2.25842
N          3.19725       -1.74990       -2.88415
S          2.96064       -1.44627       -4.50809
C          2.61843        0.22329       -4.25201
N          2.68046        0.54597       -2.98432
N          2.33399        1.09047       -5.23872
H         -2.41531        0.46710        0.22883
H         -1.56130        0.45339       -1.31251
H         -0.93439       -1.26660        1.13718
H         -1.61963       -1.81949       -0.38894
H          0.42482       -1.28403       -1.59015
H          0.81521       -2.31663       -0.21143
H          1.49242       -0.36177        1.12573
H          0.92879        1.36804       -1.33272
H          1.62042        1.91275        0.19670
H         -0.81993        2.37826        0.01708
H         -0.43717        1.34166        1.38938
H          2.63715        0.87059       -6.17985
H          2.41070        2.07309       -4.99783

--Link1--
%chk=JID_3718.chk
%mem=8GB
%nprocshared=4
# B3LYP/6-311++G(d,p) empiricaldispersion=gd3bj scf=xqc pop=npa geom=check

CID_64048716_JID_3718_Energie_neutraal

0 1

--Link1--
%chk=JID_3718.chk
%mem=8GB
%nprocshared=4
# B3LYP/6-311++G(d,p) empiricaldispersion=gd3bj scf=xqc pop=npa geom=check

CID_64048716_JID_3718_Energie_kation

1 2

--Link1--
%chk=JID_3718.chk
%mem=8GB
%nprocshared=4
# B3LYP/6-311++G(d,p) empiricaldispersion=gd3bj scf=xqc pop=npa geom=check

CID_64048716_JID_3718_Energie_anion

-1 2
