%chk=JID_10907.chk
%mem=8GB
%nprocshared=4
# opt freq B3LYP/6-31G(d) empiricaldispersion=gd3bj scf=xqc

CID_106988316_JID_10907_neutraal

0 1
C          0.97873        0.09029       -0.03736
C          0.54640       -1.27317        0.48983
C          0.97045       -2.38944       -0.42016
C          2.20770       -2.61077       -0.98896
C          2.21788       -3.72960       -1.87693
C          1.00431       -4.39842       -1.87928
S         -0.13799       -3.60645       -0.86639
C          0.56805       -5.59327       -2.57029
O         -0.54924       -6.09230       -2.59146
O          1.56535       -6.20800       -3.24587
O          3.21560       -4.13266       -2.70441
C          4.51699       -3.60775       -2.46238
C          5.30352       -3.60458       -3.77893
C          4.65935       -2.73460       -4.87868
O          5.18208       -1.40336       -4.93281
C          4.77538       -0.48667       -3.91402
C          3.26703       -0.24754       -3.79510
O          2.77647        0.38475       -4.97769
C          1.37656        0.62067       -4.90144
O          6.65375       -3.19221       -3.53907
H          2.06949        0.18415       -0.06095
H          0.59133        0.88367        0.60995
H          0.60191        0.26317       -1.05135
H          0.97955       -1.43610        1.48359
H         -0.54350       -1.26636        0.61342
H          3.03701       -1.94315       -0.80121
H          1.12152       -6.99004       -3.63094
H          4.51798       -2.59909       -2.05005
H          5.02340       -4.24807       -1.72993
H          5.32980       -4.63717       -4.14807
H          4.94492       -3.17519       -5.84159
H          3.56609       -2.74632       -4.86406
H          5.19447       -0.80305       -2.95575
H          5.25862        0.46453       -4.16457
H          2.72645       -1.18396       -3.63913
H          3.07934        0.41035       -2.93846
H          1.14388        1.27644       -4.05661
H          1.05890        1.11358       -5.82398
H          0.83384       -0.32458       -4.80420
H          6.83108       -2.45848       -4.16234

--Link1--
%chk=JID_10907.chk
%mem=8GB
%nprocshared=4
# B3LYP/6-311++G(d,p) empiricaldispersion=gd3bj scf=xqc pop=npa geom=check

CID_106988316_JID_10907_Energie_neutraal

0 1

--Link1--
%chk=JID_10907.chk
%mem=8GB
%nprocshared=4
# B3LYP/6-311++G(d,p) empiricaldispersion=gd3bj scf=xqc pop=npa geom=check

CID_106988316_JID_10907_Energie_kation

1 2

--Link1--
%chk=JID_10907.chk
%mem=8GB
%nprocshared=4
# B3LYP/6-311++G(d,p) empiricaldispersion=gd3bj scf=xqc pop=npa geom=check

CID_106988316_JID_10907_Energie_anion

-1 2
