%chk=JID_9104.chk
%mem=8GB
%nprocshared=4
# opt freq B3LYP/6-31G(d) empiricaldispersion=gd3bj scf=xqc

CID_61489282_JID_9104_neutraal

0 1
C          0.95694        0.06651       -0.06101
N          0.88219        1.39529       -0.64958
C         -0.02084        1.58008       -1.76427
C          0.48781        1.70407       -3.17707
C         -0.31822        0.50755       -2.78500
C          1.37806        2.47030        0.10445
O          1.82371        2.32774        1.24680
C          1.29996        3.86934       -0.52390
O          1.79972        3.96131       -1.85640
C          3.04514        4.53446       -1.89421
C          4.20134        3.75537       -1.72637
C          5.43794        4.40514       -1.71893
C          5.52867        5.76966       -2.01279
C          4.37258        6.51190       -2.28148
C          3.12257        5.89142       -2.21364
C          4.52182        7.94488       -2.62765
O          5.57180        8.55686       -2.69297
O          3.34735        8.54386       -2.89160
N          4.12632        2.40393       -1.36423
H          1.28755       -0.65061       -0.81634
H         -0.03361       -0.21117        0.31143
H          1.66873        0.02813        0.76820
H         -0.87857        2.19503       -1.49374
H          0.02637        2.45238       -3.81138
H          1.54552        1.56339       -3.36363
H          0.19776       -0.44305       -2.75123
H         -1.33390        0.43702       -3.15886
H          0.24371        4.16187       -0.54477
H          1.79822        4.57802        0.15272
H          6.34639        3.85022       -1.49850
H          6.50599        6.24837       -2.03245
H          2.21025        6.44928       -2.40291
H          3.59949        9.46442       -3.11491
H          4.95677        1.86357       -1.57972
H          3.27379        1.95699       -1.69449

--Link1--
%chk=JID_9104.chk
%mem=8GB
%nprocshared=4
# B3LYP/6-311++G(d,p) empiricaldispersion=gd3bj scf=xqc pop=npa geom=check

CID_61489282_JID_9104_Energie_neutraal

0 1

--Link1--
%chk=JID_9104.chk
%mem=8GB
%nprocshared=4
# B3LYP/6-311++G(d,p) empiricaldispersion=gd3bj scf=xqc pop=npa geom=check

CID_61489282_JID_9104_Energie_kation

1 2

--Link1--
%chk=JID_9104.chk
%mem=8GB
%nprocshared=4
# B3LYP/6-311++G(d,p) empiricaldispersion=gd3bj scf=xqc pop=npa geom=check

CID_61489282_JID_9104_Energie_anion

-1 2
