%chk=JID_7541.chk
%mem=8GB
%nprocshared=4
# opt freq B3LYP/6-31G(d) empiricaldispersion=gd3bj scf=xqc

CID_13128564_JID_7541_neutraal

0 1
C          1.04612       -0.08715       -0.01668
C          0.65955        1.22339       -0.68753
C          1.60015        1.60547       -1.83680
C          1.05518        1.28135       -3.23893
N          1.86303        1.89400       -4.27503
C          3.19979        1.35826       -4.47938
C          3.07236       -0.02035       -5.05504
C          2.10763       -0.81434       -4.24074
N          2.15794       -2.10310       -4.27022
N          1.06334       -0.17984       -3.48353
O          0.00068       -1.00035       -3.03290
C          1.40843        2.98634       -4.99995
C          1.81146        3.20523       -6.32856
C          1.34983        4.29605       -7.07503
C          0.46836        5.20589       -6.50680
C          0.05212        5.02215       -5.19470
C          0.51645        3.92654       -4.45568
H          1.04814       -0.92315       -0.71919
H          0.34007       -0.32111        0.78641
H          2.04501       -0.01590        0.42624
H         -0.38184        1.18359       -1.02406
H          0.70812        2.00942        0.07646
H          1.76302        2.68988       -1.78012
H          2.58066        1.14251       -1.67710
H          0.00842        1.59761       -3.31552
H          3.73862        1.31796       -3.52568
H          3.82342        1.98632       -5.12580
H          4.04395       -0.52457       -5.07972
H          2.68666        0.01518       -6.08044
H          1.39678       -2.46672       -3.68656
H         -0.68364       -0.38790       -2.70525
H          2.47744        2.50892       -6.83148
H          1.67891        4.42766       -8.10302
H          0.11039        6.05518       -7.08299
H         -0.62886        5.73672       -4.73854
H          0.18289        3.85662       -3.42447

--Link1--
%chk=JID_7541.chk
%mem=8GB
%nprocshared=4
# B3LYP/6-311++G(d,p) empiricaldispersion=gd3bj scf=xqc pop=npa geom=check

CID_13128564_JID_7541_Energie_neutraal

0 1

--Link1--
%chk=JID_7541.chk
%mem=8GB
%nprocshared=4
# B3LYP/6-311++G(d,p) empiricaldispersion=gd3bj scf=xqc pop=npa geom=check

CID_13128564_JID_7541_Energie_kation

1 2

--Link1--
%chk=JID_7541.chk
%mem=8GB
%nprocshared=4
# B3LYP/6-311++G(d,p) empiricaldispersion=gd3bj scf=xqc pop=npa geom=check

CID_13128564_JID_7541_Energie_anion

-1 2
