%chk=JID_5987.chk
%mem=8GB
%nprocshared=4
# opt freq B3LYP/6-31G(d) empiricaldispersion=gd3bj scf=xqc

CID_105862839_JID_5987_neutraal

0 1
C          1.00478       -0.09921        0.01157
C          1.35814       -0.45442        1.44346
S          2.77102        0.50162        2.07919
C          4.24113       -0.38847        1.42783
C          4.05103       -1.79320        0.84691
C          5.36597       -2.10772        0.13214
C          6.17868       -0.81650        0.16590
C          5.16024        0.33050        0.38499
N          4.43093        0.80713       -0.81804
C          4.06915        2.23024       -0.68960
C          3.01943        2.64019       -1.73063
C          3.07858        1.77404       -2.99279
C          4.52163        1.37761       -3.28194
C          5.13309        0.60679       -2.09819
N          2.48709        2.48601       -4.12912
H          0.74563        0.96025       -0.07989
H          0.12994       -0.67627       -0.30655
H          1.81341       -0.32247       -0.68727
H          0.50181       -0.20226        2.07887
H          1.51977       -1.52817        1.56904
H          4.85117       -0.50740        2.33550
H          3.83614       -2.53174        1.62634
H          3.24861       -1.84049        0.10658
H          5.16984       -2.42435       -0.89792
H          5.90730       -2.92099        0.62683
H          6.82821       -0.70990       -0.70596
H          6.85610       -0.85104        1.03085
H          5.69808        1.16612        0.85218
H          4.96632        2.85421       -0.80728
H          3.67022        2.47389        0.29901
H          3.18011        3.69878       -1.97431
H          2.01323        2.57356       -1.30006
H          2.48832        0.86332       -2.82888
H          4.58312        0.76176       -4.18763
H          5.12007        2.27927       -3.47089
H          6.18556        0.90828       -2.02459
H          5.10824       -0.45978       -2.34836
H          2.46248        1.86870       -4.93958
H          1.51675        2.71369       -3.91424

--Link1--
%chk=JID_5987.chk
%mem=8GB
%nprocshared=4
# B3LYP/6-311++G(d,p) empiricaldispersion=gd3bj scf=xqc pop=npa geom=check

CID_105862839_JID_5987_Energie_neutraal

0 1

--Link1--
%chk=JID_5987.chk
%mem=8GB
%nprocshared=4
# B3LYP/6-311++G(d,p) empiricaldispersion=gd3bj scf=xqc pop=npa geom=check

CID_105862839_JID_5987_Energie_kation

1 2

--Link1--
%chk=JID_5987.chk
%mem=8GB
%nprocshared=4
# B3LYP/6-311++G(d,p) empiricaldispersion=gd3bj scf=xqc pop=npa geom=check

CID_105862839_JID_5987_Energie_anion

-1 2
