%chk=JID_846.chk
%mem=8GB
%nprocshared=4
# opt freq B3LYP/6-31G(d) empiricaldispersion=gd3bj scf=xqc

CID_129807575_JID_846_neutraal

0 1
C          0.94115        0.06582        0.04695
C          0.14617       -0.92818       -0.78764
C          0.35073       -2.38153       -0.35086
C         -0.18463       -2.69329        1.04485
O         -1.60660       -2.62177        1.04474
C         -2.15480       -1.60937        1.89240
C         -2.20482       -2.03716        3.36298
S         -1.05560       -1.08306        4.41859
C          0.26762       -2.17700        4.59175
C          0.17206       -3.32823        5.26272
H          0.59727        0.09490        1.08421
H          0.82954        1.07380       -0.36556
H          2.00694       -0.18372        0.04347
H         -0.91728       -0.66623       -0.75819
H          0.46318       -0.83345       -1.83325
H         -0.15806       -3.02616       -1.07819
H          1.41888       -2.62504       -0.39070
H          0.08296       -3.72327        1.30389
H          0.27074       -2.04008        1.79122
H         -1.65528       -0.64906        1.72411
H         -3.18737       -1.48149        1.54711
H         -3.20163       -1.80716        3.75490
H         -2.05229       -3.11491        3.47562
H          1.22306       -1.87660        4.16997
H          1.03692       -3.97506        5.37024
H         -0.75290       -3.65201        5.72953

--Link1--
%chk=JID_846.chk
%mem=8GB
%nprocshared=4
# B3LYP/6-311++G(d,p) empiricaldispersion=gd3bj scf=xqc pop=npa geom=check

CID_129807575_JID_846_Energie_neutraal

0 1

--Link1--
%chk=JID_846.chk
%mem=8GB
%nprocshared=4
# B3LYP/6-311++G(d,p) empiricaldispersion=gd3bj scf=xqc pop=npa geom=check

CID_129807575_JID_846_Energie_kation

1 2

--Link1--
%chk=JID_846.chk
%mem=8GB
%nprocshared=4
# B3LYP/6-311++G(d,p) empiricaldispersion=gd3bj scf=xqc pop=npa geom=check

CID_129807575_JID_846_Energie_anion

-1 2
