%chk=JID_8810.chk
%mem=8GB
%nprocshared=4
# opt freq B3LYP/6-31G(d) empiricaldispersion=gd3bj scf=xqc

CID_132194271_JID_8810_neutraal

0 1
C          1.04507        0.08634        0.02269
C          0.57283        1.52713        0.26197
C          0.42567        2.27333       -1.08586
C          1.74513        2.81190       -1.62429
C          2.64426        3.39343       -0.53818
C          2.13938        4.41287        0.55750
C          1.09235        3.77694        1.50308
C          1.46427        2.28210        1.28382
C          2.87861        2.53889        0.73624
C          3.35486        3.90175        1.39321
C          3.02796        4.14051        2.87107
C          1.51066        4.31022        2.87994
O          3.46344        3.03350        3.65312
O          4.67884        4.37253        1.06192
O          3.76967        1.41925        0.71261
O          1.52971        1.56839        2.52521
O         -0.50685        3.35362       -0.92724
O         -0.73580        1.41187        0.87066
H          0.30604       -0.46384       -0.57221
H          1.14189       -0.46610        0.96357
H          1.99966        0.04132       -0.50793
H         -0.03500        1.61154       -1.82916
H          2.28696        1.99568       -2.11748
H          1.55929        3.57963       -2.38444
H          3.57018        3.71905       -1.03709
H          2.09098        5.47527        0.31978
H          0.05712        4.03512        1.27897
H          3.51396        5.04187        3.25863
H          1.01475        3.79570        3.70808
H          1.26169        5.37698        2.93645
H          2.78501        2.32927        3.56037
H          5.26805        3.73014        1.50058
H          3.77330        1.10207        1.63670
H          0.62237        1.21211        2.65058
H         -0.63686        3.75589       -1.80631
H         -1.23748        2.18847        0.54082

--Link1--
%chk=JID_8810.chk
%mem=8GB
%nprocshared=4
# B3LYP/6-311++G(d,p) empiricaldispersion=gd3bj scf=xqc pop=npa geom=check

CID_132194271_JID_8810_Energie_neutraal

0 1

--Link1--
%chk=JID_8810.chk
%mem=8GB
%nprocshared=4
# B3LYP/6-311++G(d,p) empiricaldispersion=gd3bj scf=xqc pop=npa geom=check

CID_132194271_JID_8810_Energie_kation

1 2

--Link1--
%chk=JID_8810.chk
%mem=8GB
%nprocshared=4
# B3LYP/6-311++G(d,p) empiricaldispersion=gd3bj scf=xqc pop=npa geom=check

CID_132194271_JID_8810_Energie_anion

-1 2
