%chk=JID_6808.chk
%mem=8GB
%nprocshared=4
# opt freq B3LYP/6-31G(d) empiricaldispersion=gd3bj scf=xqc

CID_79680184_JID_6808_neutraal

0 1
C          1.69800        0.03400       -0.78800
C          0.87691        0.18536        0.49445
C         -0.06380       -1.02385        0.62714
C         -1.34548       -0.62888       -0.10691
C         -1.28074        0.88668       -0.31341
C         -0.11260        1.38531        0.57202
C         -0.66550        1.61795        2.01519
N          0.37148        1.76461        3.04439
C         -0.20870        1.93287        4.39208
C         -0.65264        0.59311        5.00432
O          0.40902       -0.35714        4.83735
C          0.04766       -1.64126        5.32689
S          0.49462        2.96809       -0.09544
O          0.95150        2.75935       -1.45880
O         -0.51457        3.98521        0.14720
C          1.92757        3.40008        0.86642
H          2.23607       -0.92103       -0.78552
H          1.07757        0.05627       -1.68896
H          2.45861        0.81590       -0.86547
H          1.59689        0.18976        1.31797
H          0.36086       -1.95079        0.22783
H         -0.28753       -1.21090        1.68443
H         -2.22645       -0.91334        0.47838
H         -1.41729       -1.13910       -1.07376
H         -2.23325        1.36834       -0.06538
H         -1.09757        1.09197       -1.37495
H         -1.30490        2.50898        2.02466
H         -1.31959        0.78329        2.29174
H          0.91860        0.89783        3.11297
H          0.59015        2.34347        5.02062
H         -1.02633        2.66197        4.39819
H         -0.86263        0.72448        6.07149
H         -1.55580        0.22271        4.50692
H         -0.20678       -1.59087        6.38960
H         -0.79326       -2.04330        4.75388
H          0.90450       -2.30901        5.20259
H          1.61882        3.73168        1.85727
H          2.60004        2.54402        0.92431
H          2.43183        4.22522        0.35722

--Link1--
%chk=JID_6808.chk
%mem=8GB
%nprocshared=4
# B3LYP/6-311++G(d,p) empiricaldispersion=gd3bj scf=xqc pop=npa geom=check

CID_79680184_JID_6808_Energie_neutraal

0 1

--Link1--
%chk=JID_6808.chk
%mem=8GB
%nprocshared=4
# B3LYP/6-311++G(d,p) empiricaldispersion=gd3bj scf=xqc pop=npa geom=check

CID_79680184_JID_6808_Energie_kation

1 2

--Link1--
%chk=JID_6808.chk
%mem=8GB
%nprocshared=4
# B3LYP/6-311++G(d,p) empiricaldispersion=gd3bj scf=xqc pop=npa geom=check

CID_79680184_JID_6808_Energie_anion

-1 2
