%chk=JID_7761.chk
%mem=8GB
%nprocshared=4
# opt freq B3LYP/6-31G(d) empiricaldispersion=gd3bj scf=xqc

CID_91503485_JID_7761_neutraal

0 1
C         -0.78300       -1.00900       -0.20000
C         -1.16110        0.39618        0.22626
N         -0.02463        1.21198       -0.21443
C          1.16759        0.40322        0.10044
C          0.73400       -1.06800        0.07400
C          1.02499       -1.74882        1.40148
C          1.27460       -2.33282        2.54020
C          1.44349       -2.97580        3.80459
C          1.38444       -4.36474        3.89635
C          1.48728       -4.98835        5.15607
C          1.42343       -6.36301        5.33818
N          1.50678       -6.96776        6.53789
C          1.66157       -6.14448        7.58318
N          1.74149       -4.80505        7.53600
C          1.65328       -4.23654        6.32564
C          1.71946       -2.85381        6.20369
C          1.61500       -2.21785        4.95996
H         -0.96301       -1.13038       -1.27571
H         -1.35683       -1.77443        0.33181
H         -2.09634        0.72948       -0.23295
H         -1.27119        0.46461        1.31482
H         -0.08185        1.32601       -1.22735
H          1.56510        0.70661        1.07590
H          1.94885        0.59518       -0.64326
H          1.23919       -1.62189       -0.72533
H          1.24343       -4.96229        2.99857
H          1.29574       -7.03964        4.49766
H          1.72769       -6.60362        8.56376
H          1.84542       -2.25238        7.10128
H          1.65535       -1.13204        4.90908

--Link1--
%chk=JID_7761.chk
%mem=8GB
%nprocshared=4
# B3LYP/6-311++G(d,p) empiricaldispersion=gd3bj scf=xqc pop=npa geom=check

CID_91503485_JID_7761_Energie_neutraal

0 1

--Link1--
%chk=JID_7761.chk
%mem=8GB
%nprocshared=4
# B3LYP/6-311++G(d,p) empiricaldispersion=gd3bj scf=xqc pop=npa geom=check

CID_91503485_JID_7761_Energie_kation

1 2

--Link1--
%chk=JID_7761.chk
%mem=8GB
%nprocshared=4
# B3LYP/6-311++G(d,p) empiricaldispersion=gd3bj scf=xqc pop=npa geom=check

CID_91503485_JID_7761_Energie_anion

-1 2
