%chk=JID_4363.chk
%mem=8GB
%nprocshared=4
# opt freq B3LYP/6-31G(d) empiricaldispersion=gd3bj scf=xqc

CID_131514287_JID_4363_neutraal

0 1
C          0.95777        0.08853       -0.01946
C          0.20788       -1.01425       -0.74202
O          1.04466       -2.17406       -0.87078
C          1.82544       -2.22805       -1.98675
O          1.90180       -1.33165       -2.82262
C          2.71333       -3.50676       -2.01370
C          1.99304       -4.65602       -1.24051
N          2.58439       -5.96911       -1.46188
C          2.20807       -6.54562       -2.65871
O          1.16915       -7.18501       -2.78408
C          3.16567       -6.30608       -3.79803
C          3.86637       -4.94685       -3.74433
N          2.97842       -3.82171       -3.45730
C          4.01382       -3.10471       -1.28813
H          1.31377       -0.26329        0.95413
H          0.31463        0.95971        0.13331
H          1.84008        0.39973       -0.58714
H         -0.66479       -1.31369       -0.15246
H         -0.16224       -0.67638       -1.71676
H          2.02983       -4.47889       -0.15940
H          0.93644       -4.70614       -1.53515
H          3.58012       -5.97641       -1.29237
H          2.58449       -6.36828       -4.72650
H          3.90351       -7.11526       -3.81044
H          4.30522       -4.77704       -4.73578
H          4.72128       -4.98026       -3.06174
H          3.33568       -2.96816       -3.89870
H          4.55405       -2.32787       -1.84276
H          3.79675       -2.68941       -0.29633
H          4.69290       -3.94992       -1.14200

--Link1--
%chk=JID_4363.chk
%mem=8GB
%nprocshared=4
# B3LYP/6-311++G(d,p) empiricaldispersion=gd3bj scf=xqc pop=npa geom=check

CID_131514287_JID_4363_Energie_neutraal

0 1

--Link1--
%chk=JID_4363.chk
%mem=8GB
%nprocshared=4
# B3LYP/6-311++G(d,p) empiricaldispersion=gd3bj scf=xqc pop=npa geom=check

CID_131514287_JID_4363_Energie_kation

1 2

--Link1--
%chk=JID_4363.chk
%mem=8GB
%nprocshared=4
# B3LYP/6-311++G(d,p) empiricaldispersion=gd3bj scf=xqc pop=npa geom=check

CID_131514287_JID_4363_Energie_anion

-1 2
