%chk=JID_1769.chk
%mem=8GB
%nprocshared=4
# opt freq B3LYP/6-31G(d) empiricaldispersion=gd3bj scf=xqc

CID_87835458_JID_1769_neutraal

0 1
C          0.98438        0.00224        0.09875
C          0.68813        1.07642       -0.93563
C          1.09162        0.68651       -2.35980
C          0.47096       -0.60739       -2.90939
C         -1.07468       -0.74728       -2.87904
N         -1.85154       -0.09283       -3.94624
C         -3.28550       -0.14931       -3.63467
C         -1.47172        1.28535       -4.22231
O         -1.43769       -2.13877       -2.77313
C         -0.91721       -3.05116       -3.73745
C         -1.50822       -2.90356       -5.12766
H          0.37256       -0.89021       -0.06244
H          0.76445        0.37750        1.10337
H          2.03870       -0.29040        0.07009
H         -0.37374        1.34158       -0.89751
H          1.23867        1.98439       -0.66032
H          0.88287        1.53091       -3.02131
H          2.18291        0.56597       -2.38654
H          0.82497       -0.74770       -3.93938
H          0.90972       -1.43999       -2.34350
H         -1.40906       -0.32494       -1.92511
H         -3.53181        0.41968       -2.73056
H         -3.87441        0.25681       -4.46523
H         -3.63008       -1.17953       -3.49687
H         -1.49635        1.91299       -3.32500
H         -0.47858        1.32973       -4.67815
H         -2.14473        1.73425       -4.96288
H          0.17553       -3.01717       -3.77319
H         -1.17472       -4.05053       -3.36885
H         -1.14859       -1.99534       -5.61908
H         -1.21863       -3.75202       -5.75541
H         -2.60047       -2.85472       -5.08803

--Link1--
%chk=JID_1769.chk
%mem=8GB
%nprocshared=4
# B3LYP/6-311++G(d,p) empiricaldispersion=gd3bj scf=xqc pop=npa geom=check

CID_87835458_JID_1769_Energie_neutraal

0 1

--Link1--
%chk=JID_1769.chk
%mem=8GB
%nprocshared=4
# B3LYP/6-311++G(d,p) empiricaldispersion=gd3bj scf=xqc pop=npa geom=check

CID_87835458_JID_1769_Energie_kation

1 2

--Link1--
%chk=JID_1769.chk
%mem=8GB
%nprocshared=4
# B3LYP/6-311++G(d,p) empiricaldispersion=gd3bj scf=xqc pop=npa geom=check

CID_87835458_JID_1769_Energie_anion

-1 2
