%chk=JID_8741.chk
%mem=8GB
%nprocshared=4
# opt freq B3LYP/6-31G(d) empiricaldispersion=gd3bj scf=xqc

CID_114049826_JID_8741_neutraal

0 1
C          1.04492       -0.07413        0.04988
C          0.72317       -1.52210        0.28209
C          1.63407       -2.37354        0.91844
C          1.28236       -3.71867        0.97983
C          0.03399       -4.14631        0.52423
C         -0.84448       -3.22914       -0.03109
N         -0.49955       -1.92857       -0.15795
N         -2.11090       -3.53412       -0.50974
C         -2.78831       -4.69729       -0.52031
N         -2.38709       -5.86587       -0.06119
C         -3.36113       -6.82059       -0.25196
C         -4.51612       -6.37116       -0.85133
S         -4.38740       -4.71639       -1.20389
C         -5.70012       -7.21338       -1.18102
C         -5.63032       -8.54622       -0.41225
C         -4.21868       -9.15988       -0.44097
C         -3.17251       -8.22900        0.19819
N          2.93639       -1.98743        1.26849
H          1.19541        0.43988        1.00428
H          0.22568        0.42740       -0.47607
H          1.94597        0.02388       -0.56356
H          1.97265       -4.45369        1.38350
H         -0.21940       -5.19686        0.60262
H         -2.55023       -2.70089       -0.87577
H         -5.70520       -7.41689       -2.25877
H         -6.63510       -6.69774       -0.93529
H         -6.35314       -9.25089       -0.83870
H         -5.92368       -8.38057        0.63258
H         -4.21826      -10.12291        0.08187
H         -3.94028       -9.36107       -1.48354
H         -3.27247       -8.26321        1.28963
H         -2.16468       -8.57776       -0.05182
H          3.36504       -2.59099        1.96402
H          3.02719       -1.00655        1.51284

--Link1--
%chk=JID_8741.chk
%mem=8GB
%nprocshared=4
# B3LYP/6-311++G(d,p) empiricaldispersion=gd3bj scf=xqc pop=npa geom=check

CID_114049826_JID_8741_Energie_neutraal

0 1

--Link1--
%chk=JID_8741.chk
%mem=8GB
%nprocshared=4
# B3LYP/6-311++G(d,p) empiricaldispersion=gd3bj scf=xqc pop=npa geom=check

CID_114049826_JID_8741_Energie_kation

1 2

--Link1--
%chk=JID_8741.chk
%mem=8GB
%nprocshared=4
# B3LYP/6-311++G(d,p) empiricaldispersion=gd3bj scf=xqc pop=npa geom=check

CID_114049826_JID_8741_Energie_anion

-1 2
