%chk=JID_6850.chk
%mem=8GB
%nprocshared=4
# opt freq B3LYP/6-31G(d) empiricaldispersion=gd3bj scf=xqc

CID_119873495_JID_6850_neutraal

0 1
C         -1.50500        0.02200       -0.20100
C         -0.66363        1.24815        0.16547
C          0.79013        1.09529       -0.29716
N          1.36704       -0.15551        0.20960
C          0.62241       -1.32346       -0.32763
C         -0.82156       -1.29097        0.20201
C          1.26102       -2.67927       -0.18822
N          0.95744       -3.57181        0.73692
C          1.69466       -4.72490        0.54085
C          2.55707       -4.70388       -0.53194
S          2.44128       -3.19860       -1.34020
C          1.87924       -0.05424        1.51015
O          1.77430        0.99327        2.15980
C          2.72099       -1.16825        2.09376
C          2.24479       -1.60609        3.47638
N          0.98839       -2.35218        3.47149
H         -2.48986        0.09034        0.27431
H         -1.67497        0.01792       -1.28499
H         -1.10308        2.14688       -0.28111
H         -0.69607        1.38373        1.25319
H          0.84297        1.07579       -1.39246
H          1.38569        1.95531        0.02993
H          0.55818       -1.14913       -1.41313
H         -0.83374       -1.38199        1.29415
H         -1.40039       -2.13348       -0.19583
H          1.56497       -5.55872        1.22106
H          3.22719       -5.48042       -0.87179
H          2.87446       -2.01098        1.43198
H          3.72646       -0.73799        2.20607
H          3.01213       -2.25270        3.91653
H          2.14022       -0.74458        4.14527
H          0.96783       -2.99210        2.66777
H          0.21387       -1.70735        3.31899

--Link1--
%chk=JID_6850.chk
%mem=8GB
%nprocshared=4
# B3LYP/6-311++G(d,p) empiricaldispersion=gd3bj scf=xqc pop=npa geom=check

CID_119873495_JID_6850_Energie_neutraal

0 1

--Link1--
%chk=JID_6850.chk
%mem=8GB
%nprocshared=4
# B3LYP/6-311++G(d,p) empiricaldispersion=gd3bj scf=xqc pop=npa geom=check

CID_119873495_JID_6850_Energie_kation

1 2

--Link1--
%chk=JID_6850.chk
%mem=8GB
%nprocshared=4
# B3LYP/6-311++G(d,p) empiricaldispersion=gd3bj scf=xqc pop=npa geom=check

CID_119873495_JID_6850_Energie_anion

-1 2
