%chk=JID_10245.chk
%mem=8GB
%nprocshared=4
# opt freq B3LYP/6-31G(d) empiricaldispersion=gd3bj scf=xqc

CID_61424221_JID_10245_neutraal

0 1
C          0.94782        0.06879       -0.05045
C          0.47947       -1.36727       -0.17912
C          1.52435       -2.42637        0.20567
C          2.02219       -2.45200        1.67654
C          0.82463       -2.31869        2.64763
C          2.66056       -3.80205        2.08784
O          3.52482       -3.96955        2.93727
O          2.12174       -4.88278        1.48759
N          2.98474       -1.37194        2.00476
C          4.04949       -0.76591        1.44651
O          4.47507        0.21853        2.05780
N          4.58390       -1.17495        0.24870
C          4.99628       -2.55388        0.05948
C          5.48619       -0.21385       -0.39490
C          4.70668        0.79785       -1.16724
C          4.41463        2.10334       -0.80534
O          3.69640        2.72006       -1.78539
C          3.52619        1.81918       -2.78330
C          4.12692        0.62685       -2.45999
C          4.70570        2.92171        0.39142
H          1.12655        0.34912        0.99055
H          0.18583        0.74837       -0.44585
H          1.86392        0.22915       -0.61890
H         -0.44014       -1.50744        0.39951
H          0.20043       -1.53939       -1.22658
H          1.05722       -3.39139       -0.02971
H          2.36392       -2.34786       -0.49009
H          0.05020       -3.06321        2.42986
H          1.13690       -2.47152        3.68870
H          0.37022       -1.32344        2.60299
H          2.59087       -5.63764        1.90276
H          2.83899       -0.95068        2.91421
H          5.10748       -2.75429       -1.01072
H          5.95329       -2.70946        0.56810
H          4.28582       -3.26472        0.45717
H          6.14404        0.25375        0.34628
H          6.14031       -0.74298       -1.10008
H          2.96513        2.17020       -3.63761
H          4.14185       -0.26308       -3.07256
H          4.83198        3.97497        0.12127
H          3.88378        2.84893        1.10979
H          5.62637        2.59243        0.88190

--Link1--
%chk=JID_10245.chk
%mem=8GB
%nprocshared=4
# B3LYP/6-311++G(d,p) empiricaldispersion=gd3bj scf=xqc pop=npa geom=check

CID_61424221_JID_10245_Energie_neutraal

0 1

--Link1--
%chk=JID_10245.chk
%mem=8GB
%nprocshared=4
# B3LYP/6-311++G(d,p) empiricaldispersion=gd3bj scf=xqc pop=npa geom=check

CID_61424221_JID_10245_Energie_kation

1 2

--Link1--
%chk=JID_10245.chk
%mem=8GB
%nprocshared=4
# B3LYP/6-311++G(d,p) empiricaldispersion=gd3bj scf=xqc pop=npa geom=check

CID_61424221_JID_10245_Energie_anion

-1 2
