%chk=JID_7464.chk
%mem=8GB
%nprocshared=4
# opt freq B3LYP/6-31G(d) empiricaldispersion=gd3bj scf=xqc

CID_106036374_JID_7464_neutraal

0 1
C         -2.94600        0.04200        0.02500
C         -1.45944       -0.13609       -0.05070
C         -0.91417       -1.31622       -0.57093
C          0.47281       -1.50311       -0.62786
C          1.33033       -0.53466       -0.05987
C          0.78628        0.66811        0.39808
C         -0.59813        0.85627        0.42770
N          2.73345       -0.69322       -0.11856
N          1.00292       -2.69224       -1.19294
C          0.83367       -3.85137       -0.31360
C          1.52427       -5.08005       -0.90513
C          3.05628       -5.01427       -0.81455
N          3.67454       -6.09612       -0.02448
C          5.05851       -6.30238       -0.47575
C          3.63166       -5.95559        1.45057
C          4.05515       -4.59048        2.00663
C          2.27494       -6.36754        2.03159
H         -3.44453       -0.47501       -0.80166
H         -3.32260       -0.35802        0.97138
H         -3.21759        1.10062       -0.04424
H         -1.56870       -2.08505       -0.97414
H          1.43351        1.46179        0.75970
H         -0.99855        1.78710        0.82269
H          2.99899       -1.65932        0.03938
H          3.21952       -0.07170        0.52056
H          1.97262       -2.50363       -1.44120
H          1.22381       -3.63805        0.68754
H         -0.23445       -4.07914       -0.21259
H          1.14250       -5.98200       -0.41488
H          1.23484       -5.18185       -1.95987
H          3.40321       -5.11097       -1.85329
H          3.41446       -4.02986       -0.49499
H          5.68249       -5.41538       -0.32286
H          5.52029       -7.14792        0.04644
H          5.08244       -6.55908       -1.54108
H          4.33435       -6.69203        1.86567
H          3.33717       -3.80273        1.76087
H          4.12585       -4.63372        3.09944
H          5.03811       -4.28995        1.63135
H          1.94352       -7.32640        1.61829
H          2.35228       -6.49307        3.11781
H          1.49688       -5.62293        1.85126

--Link1--
%chk=JID_7464.chk
%mem=8GB
%nprocshared=4
# B3LYP/6-311++G(d,p) empiricaldispersion=gd3bj scf=xqc pop=npa geom=check

CID_106036374_JID_7464_Energie_neutraal

0 1

--Link1--
%chk=JID_7464.chk
%mem=8GB
%nprocshared=4
# B3LYP/6-311++G(d,p) empiricaldispersion=gd3bj scf=xqc pop=npa geom=check

CID_106036374_JID_7464_Energie_kation

1 2

--Link1--
%chk=JID_7464.chk
%mem=8GB
%nprocshared=4
# B3LYP/6-311++G(d,p) empiricaldispersion=gd3bj scf=xqc pop=npa geom=check

CID_106036374_JID_7464_Energie_anion

-1 2
