%chk=JID_6815.chk
%mem=8GB
%nprocshared=4
# opt freq B3LYP/6-31G(d) empiricaldispersion=gd3bj scf=xqc

CID_82376645_JID_6815_neutraal

0 1
C          1.07969       -0.04240       -0.04303
C          0.20423       -1.11526       -0.64877
O         -1.01004       -0.91475       -0.69790
N          0.86273       -2.24802       -1.13503
C          2.33613       -2.41482       -1.05317
C          2.93092       -3.32021       -2.16317
N          2.17480       -4.58552       -2.24154
C          0.82134       -4.52231       -2.13849
C         -0.02551       -5.52863       -2.52985
S         -1.66267       -5.09620       -2.29072
C         -1.22451       -3.56316       -1.65479
C          0.14100       -3.37192       -1.61087
C          2.96228       -2.61660       -3.55494
N          4.24062       -1.95437       -3.90955
C          4.19193       -1.50802       -5.30713
C          4.56605       -0.82099       -3.04711
H          0.44650        0.71056        0.43741
H          1.66308        0.45131       -0.82452
H          1.73233       -0.46162        0.72711
H          2.53138       -2.86603       -0.07126
H          2.82692       -1.44218       -1.05869
H          3.95747       -3.58389       -1.88012
H          2.61016       -5.30257       -2.81758
H          0.22520       -6.49227       -2.94854
H         -2.01470       -2.89830       -1.33783
H          2.78239       -3.38841       -4.31596
H          2.12967       -1.90574       -3.64146
H          3.40632       -0.76202       -5.47376
H          5.15187       -1.07203       -5.60621
H          4.01441       -2.35527       -5.97877
H          3.75806       -0.08180       -3.00998
H          4.78924       -1.15838       -2.03064
H          5.47475       -0.31568       -3.39481

--Link1--
%chk=JID_6815.chk
%mem=8GB
%nprocshared=4
# B3LYP/6-311++G(d,p) empiricaldispersion=gd3bj scf=xqc pop=npa geom=check

CID_82376645_JID_6815_Energie_neutraal

0 1

--Link1--
%chk=JID_6815.chk
%mem=8GB
%nprocshared=4
# B3LYP/6-311++G(d,p) empiricaldispersion=gd3bj scf=xqc pop=npa geom=check

CID_82376645_JID_6815_Energie_kation

1 2

--Link1--
%chk=JID_6815.chk
%mem=8GB
%nprocshared=4
# B3LYP/6-311++G(d,p) empiricaldispersion=gd3bj scf=xqc pop=npa geom=check

CID_82376645_JID_6815_Energie_anion

-1 2
