%chk=JID_6837.chk
%mem=8GB
%nprocshared=4
# opt freq B3LYP/6-31G(d) empiricaldispersion=gd3bj scf=xqc

CID_71380029_JID_6837_neutraal

0 1
C          0.94480       -0.05455       -0.06306
C          0.32243        0.16322        1.27342
C         -0.09486       -0.82144        2.15807
N         -0.61186       -0.19107        3.27385
C         -0.57954        1.18138        3.10597
C         -1.02899        2.23155        3.92734
C         -0.82607        3.54665        3.49979
C         -0.20241        3.81365        2.28779
C          0.22568        2.76570        1.46780
C          0.03311        1.42729        1.87500
C         -1.13824       -0.86930        4.45155
C         -0.05578       -1.29556        5.45204
C          0.63831       -0.14278        6.18060
C         -0.27742        0.55404        7.09262
N         -1.02365        1.08997        7.80111
C         -0.04796       -2.30457        2.00381
H          0.95137        0.86118       -0.66156
H          0.39269       -0.81200       -0.62882
H          1.97924       -0.39306        0.05361
H         -1.52962        2.04861        4.87258
H         -1.16490        4.36975        4.12497
H         -0.05365        4.84195        1.96891
H          0.70058        2.98699        0.51670
H         -1.89191       -0.22790        4.91848
H         -1.67753       -1.75490        4.09611
H         -0.51636       -1.96369        6.19136
H          0.71305       -1.88360        4.93810
H          1.46907       -0.55298        6.76740
H          1.08172        0.56085        5.46950
H          0.48269       -2.77332        2.83679
H         -1.06092       -2.71636        1.95477
H          0.47225       -2.59387        1.08547

--Link1--
%chk=JID_6837.chk
%mem=8GB
%nprocshared=4
# B3LYP/6-311++G(d,p) empiricaldispersion=gd3bj scf=xqc pop=npa geom=check

CID_71380029_JID_6837_Energie_neutraal

0 1

--Link1--
%chk=JID_6837.chk
%mem=8GB
%nprocshared=4
# B3LYP/6-311++G(d,p) empiricaldispersion=gd3bj scf=xqc pop=npa geom=check

CID_71380029_JID_6837_Energie_kation

1 2

--Link1--
%chk=JID_6837.chk
%mem=8GB
%nprocshared=4
# B3LYP/6-311++G(d,p) empiricaldispersion=gd3bj scf=xqc pop=npa geom=check

CID_71380029_JID_6837_Energie_anion

-1 2
