%chk=JID_1147.chk
%mem=8GB
%nprocshared=4
# opt freq B3LYP/6-31G(d) empiricaldispersion=gd3bj scf=xqc

CID_83695837_JID_1147_neutraal

0 1
C          1.26600       -0.09700        0.26800
C          0.46219        0.83870       -0.61880
C         -0.98076        0.41808       -0.36586
C         -0.91621       -1.08839       -0.09219
C          0.56166       -1.43836        0.11818
S         -1.70576       -2.12905       -1.37176
O         -3.14865       -1.73820       -1.45549
N         -0.84306       -1.51896       -2.66137
C         -0.21309       -2.45616       -3.59979
C         -1.22541       -3.20803       -4.48715
N         -2.30066       -2.33656       -4.97354
H          1.21783        0.23803        1.31102
H          2.31883       -0.14644       -0.02438
H          0.63430        1.89093       -0.37422
H          0.72785        0.68701       -1.67097
H         -1.64345        0.71149       -1.18543
H         -1.34238        0.92810        0.53641
H         -1.47516       -1.30480        0.82636
H          0.99409       -1.98716       -0.72541
H          0.70422       -2.06039        1.00844
H         -1.39853       -0.88629       -3.24312
H          0.44887       -1.86815       -4.24720
H          0.42737       -3.16958       -3.06803
H         -0.69766       -3.64391       -5.34211
H         -1.67245       -4.03419       -3.92264
H         -2.91028       -2.87783       -5.58725
H         -2.89470       -2.08663       -4.17554

--Link1--
%chk=JID_1147.chk
%mem=8GB
%nprocshared=4
# B3LYP/6-311++G(d,p) empiricaldispersion=gd3bj scf=xqc pop=npa geom=check

CID_83695837_JID_1147_Energie_neutraal

0 1

--Link1--
%chk=JID_1147.chk
%mem=8GB
%nprocshared=4
# B3LYP/6-311++G(d,p) empiricaldispersion=gd3bj scf=xqc pop=npa geom=check

CID_83695837_JID_1147_Energie_kation

1 2

--Link1--
%chk=JID_1147.chk
%mem=8GB
%nprocshared=4
# B3LYP/6-311++G(d,p) empiricaldispersion=gd3bj scf=xqc pop=npa geom=check

CID_83695837_JID_1147_Energie_anion

-1 2
