%chk=JID_9630.chk
%mem=8GB
%nprocshared=4
# opt freq B3LYP/6-31G(d) empiricaldispersion=gd3bj scf=xqc

CID_151270530_JID_9630_neutraal

0 1
C          1.04145       -0.01165       -0.09026
C          0.89214        0.90195       -1.29230
O          1.15345        0.17750       -2.50314
C          2.44843        0.11400       -2.89452
O          3.39316        0.58005       -2.26755
N          2.65961       -0.55625       -4.07131
C          1.75349       -1.10992       -4.95312
C          2.19535       -1.77832       -6.03606
C          1.35009       -2.39500       -7.06550
C          1.36515       -3.78508       -7.22441
C          0.57143       -4.39024       -8.20095
C         -0.23636       -3.60980       -9.02645
C         -0.24959       -2.22386       -8.87926
C          0.54402       -1.61640       -7.90445
C          0.27261       -0.96310       -4.74222
O         -0.31652        0.06130       -5.07113
N         -0.26267       -2.08711       -4.17383
N         -1.49240       -1.99284       -4.05061
N         -2.62441       -1.94575       -3.91981
H          0.39008       -0.88622       -0.18962
H          0.78540        0.51651        0.83250
H          2.06637       -0.38626       -0.00572
H         -0.13969        1.26320       -1.35348
H          1.53737        1.78405       -1.20909
H          3.64354       -0.62305       -4.29535
H          3.26103       -1.91239       -6.20472
H          1.98636       -4.40922       -6.58603
H          0.58216       -5.47108       -8.31703
H         -0.85529       -4.08138       -9.78572
H         -0.87817       -1.61414       -9.52366
H          0.52281       -0.53228       -7.80777

--Link1--
%chk=JID_9630.chk
%mem=8GB
%nprocshared=4
# B3LYP/6-311++G(d,p) empiricaldispersion=gd3bj scf=xqc pop=npa geom=check

CID_151270530_JID_9630_Energie_neutraal

0 1

--Link1--
%chk=JID_9630.chk
%mem=8GB
%nprocshared=4
# B3LYP/6-311++G(d,p) empiricaldispersion=gd3bj scf=xqc pop=npa geom=check

CID_151270530_JID_9630_Energie_kation

1 2

--Link1--
%chk=JID_9630.chk
%mem=8GB
%nprocshared=4
# B3LYP/6-311++G(d,p) empiricaldispersion=gd3bj scf=xqc pop=npa geom=check

CID_151270530_JID_9630_Energie_anion

-1 2
