%chk=JID_7474.chk
%mem=8GB
%nprocshared=4
# opt freq B3LYP/6-31G(d) empiricaldispersion=gd3bj scf=xqc

CID_142596909_JID_7474_neutraal

0 1
C          1.05287       -0.08406       -0.01179
C          0.74186        1.24276        0.64300
C         -2.13715        0.24436       -2.45306
C         -1.55720       -1.09364       -2.78305
C         -1.88756       -2.29706       -2.28961
C         -2.88658       -2.56558       -1.27664
C         -3.32524       -3.76526       -0.84613
C         -2.92602       -5.06459       -1.36081
C         -2.98325       -5.52923       -2.62506
C         -3.50395       -4.83439       -3.78302
C         -3.46852       -5.35128       -5.01708
C         -2.52928       -6.05849       -0.31454
O         -1.78890       -7.01025       -0.54898
N         -3.14826       -5.83956        0.90513
C         -4.00963       -4.78332        1.07249
N         -4.16111       -3.79924        0.24802
C         -2.95722       -6.81099        1.96025
H          1.17828        0.03991       -1.09150
H          0.24184       -0.79754        0.16195
H          1.97615       -0.50668        0.39551
H          1.55152        1.95723        0.46698
H         -0.18326        1.66411        0.23872
H          0.62038        1.11903        1.72324
H         -2.95143        0.20364       -1.72684
H         -2.52780        0.70833       -3.36434
H         -1.35604        0.89577       -2.04964
H         -0.76853       -1.06675       -3.53477
H         -1.33780       -3.15504       -2.67453
H         -3.29204       -1.69712       -0.76211
H         -2.65423       -6.55220       -2.81528
H         -3.96124       -3.85751       -3.64161
H         -3.87955       -4.79801       -5.85601
H         -3.03437       -6.32368       -5.22748
H         -4.60622       -4.81804        1.99828
H         -3.44724       -7.74524        1.66840
H         -1.88794       -7.00429        2.09059
H         -3.38224       -6.45853        2.90408

--Link1--
%chk=JID_7474.chk
%mem=8GB
%nprocshared=4
# B3LYP/6-311++G(d,p) empiricaldispersion=gd3bj scf=xqc pop=npa geom=check

CID_142596909_JID_7474_Energie_neutraal

0 1

--Link1--
%chk=JID_7474.chk
%mem=8GB
%nprocshared=4
# B3LYP/6-311++G(d,p) empiricaldispersion=gd3bj scf=xqc pop=npa geom=check

CID_142596909_JID_7474_Energie_kation

1 2

--Link1--
%chk=JID_7474.chk
%mem=8GB
%nprocshared=4
# B3LYP/6-311++G(d,p) empiricaldispersion=gd3bj scf=xqc pop=npa geom=check

CID_142596909_JID_7474_Energie_anion

-1 2
