%chk=JID_10962.chk
%mem=8GB
%nprocshared=4
# opt freq B3LYP/6-31G(d) empiricaldispersion=gd3bj scf=xqc

CID_18823817_JID_10962_neutraal

0 1
C          1.09761        0.02090       -0.00603
C          0.50972        0.44451        1.31435
C         -0.01906       -0.53817        2.16906
C         -0.54835       -0.12539        3.37511
C         -0.57250        1.20567        3.76098
C         -0.06032        2.19235        2.94678
C          0.49313        1.81562        1.70714
C          1.05348        2.88561        0.80658
O         -1.14227        1.40371        4.99498
C         -1.51377        0.13529        5.46007
C         -2.11411       -0.01945        6.64745
C         -2.55953       -1.27015        7.26792
C         -1.67893       -2.33121        7.50804
C         -2.12511       -3.48852        8.15075
C         -3.44807       -3.58153        8.56367
C         -4.33593       -2.53343        8.34697
C         -3.88769       -1.37587        7.70393
O         -3.84097       -4.72782        9.18847
C         -1.15763       -0.90293        4.44620
O         -1.31450       -2.10350        4.45773
H          0.59394        0.53515       -0.83052
H          0.97935       -1.05543       -0.17079
H          2.16843        0.24549       -0.03286
H         -0.02039       -1.59167        1.90553
H         -0.08709        3.23014        3.26370
H          0.47617        2.93915       -0.12169
H          1.01199        3.87178        1.28123
H          2.10288        2.67827        0.57488
H         -2.32151        0.87116        7.23683
H         -0.64071       -2.27442        7.19024
H         -1.44096       -4.31425        8.32287
H         -5.37017       -2.59522        8.66913
H         -4.58653       -0.55872        7.54010
H         -4.79202       -4.66786        9.37384

--Link1--
%chk=JID_10962.chk
%mem=8GB
%nprocshared=4
# B3LYP/6-311++G(d,p) empiricaldispersion=gd3bj scf=xqc pop=npa geom=check

CID_18823817_JID_10962_Energie_neutraal

0 1

--Link1--
%chk=JID_10962.chk
%mem=8GB
%nprocshared=4
# B3LYP/6-311++G(d,p) empiricaldispersion=gd3bj scf=xqc pop=npa geom=check

CID_18823817_JID_10962_Energie_kation

1 2

--Link1--
%chk=JID_10962.chk
%mem=8GB
%nprocshared=4
# B3LYP/6-311++G(d,p) empiricaldispersion=gd3bj scf=xqc pop=npa geom=check

CID_18823817_JID_10962_Energie_anion

-1 2
