%chk=JID_4185.chk
%mem=8GB
%nprocshared=4
# opt freq B3LYP/6-31G(d) empiricaldispersion=gd3bj scf=xqc

CID_54297567_JID_4185_neutraal

0 1
C          0.96240       -0.05383       -0.07542
C          0.75731        0.19504        1.41144
C          1.35934        1.51279        1.91362
C          0.69336        2.74551        1.34751
C         -0.36226        3.31285        1.96044
C          1.30568        3.31990        0.10384
O          2.35950        2.90702       -0.35185
O          0.52472        4.31200       -0.37818
C          0.81667        4.80123       -1.60803
O          1.61808        4.37415       -2.42612
C         -0.06743        5.97517       -1.89705
C         -1.50983        5.57662       -2.02197
O         -2.32347        5.84360       -1.13722
C         -1.90932        4.79899       -3.24847
H          0.41678        0.67323       -0.68397
H          0.59360       -1.04953       -0.34244
H          2.02340       -0.00567       -0.33964
H         -0.31524        0.16091        1.63803
H          1.22101       -0.62907        1.96720
H          1.26752        1.53008        3.00825
H          2.43877        1.52908        1.72069
H         -0.85475        4.20827        1.59269
H         -0.77574        2.88295        2.86876
H          0.04886        6.71978       -1.10229
H          0.25202        6.45790       -2.82661
H         -1.60438        5.34368       -4.14545
H         -1.44172        3.81173       -3.22899
H         -2.99603        4.67775       -3.26774

--Link1--
%chk=JID_4185.chk
%mem=8GB
%nprocshared=4
# B3LYP/6-311++G(d,p) empiricaldispersion=gd3bj scf=xqc pop=npa geom=check

CID_54297567_JID_4185_Energie_neutraal

0 1

--Link1--
%chk=JID_4185.chk
%mem=8GB
%nprocshared=4
# B3LYP/6-311++G(d,p) empiricaldispersion=gd3bj scf=xqc pop=npa geom=check

CID_54297567_JID_4185_Energie_kation

1 2

--Link1--
%chk=JID_4185.chk
%mem=8GB
%nprocshared=4
# B3LYP/6-311++G(d,p) empiricaldispersion=gd3bj scf=xqc pop=npa geom=check

CID_54297567_JID_4185_Energie_anion

-1 2
