%chk=JID_2020.chk
%mem=8GB
%nprocshared=4
# opt freq B3LYP/6-31G(d) empiricaldispersion=gd3bj scf=xqc

CID_22750497_JID_2020_neutraal

0 1
C          0.92980        0.06215        0.03477
C          0.33826        1.45906       -0.08384
C          1.20066        2.41874       -0.92141
C          1.27819        1.99617       -2.38954
C          0.64286        3.84047       -0.82223
C         -2.79906       -1.57790       -1.08869
C         -2.54411       -0.72230       -2.15771
C         -1.51217       -1.01213       -3.05404
C         -0.69826       -2.13237       -2.86744
C         -1.00506       -3.01686       -1.83006
C         -2.03547       -2.73181       -0.93033
N          0.25732       -2.47880       -3.83098
H          0.30351       -0.55658        0.68548
H          1.93414        0.09871        0.46847
H          0.99310       -0.43540       -0.93579
H         -0.66969        1.38966       -0.51007
H          0.22418        1.86597        0.92864
H          2.21866        2.42818       -0.51170
H          0.28012        1.92234       -2.83444
H          1.85372        2.72374       -2.97211
H          1.77395        1.02733       -2.50129
H          0.62144        4.17831        0.21935
H          1.26531        4.54325       -1.38629
H         -0.37680        3.89643       -1.21836
H         -3.60456       -1.35729       -0.39360
H         -3.15518        0.16418       -2.30336
H         -1.34610       -0.35030       -3.89951
H         -0.43984       -3.93701       -1.71073
H         -2.24918       -3.41874       -0.11600
H          0.98791       -3.08726       -3.47548
H          0.63356       -1.68043       -4.33242

--Link1--
%chk=JID_2020.chk
%mem=8GB
%nprocshared=4
# B3LYP/6-311++G(d,p) empiricaldispersion=gd3bj scf=xqc pop=npa geom=check

CID_22750497_JID_2020_Energie_neutraal

0 1

--Link1--
%chk=JID_2020.chk
%mem=8GB
%nprocshared=4
# B3LYP/6-311++G(d,p) empiricaldispersion=gd3bj scf=xqc pop=npa geom=check

CID_22750497_JID_2020_Energie_kation

1 2

--Link1--
%chk=JID_2020.chk
%mem=8GB
%nprocshared=4
# B3LYP/6-311++G(d,p) empiricaldispersion=gd3bj scf=xqc pop=npa geom=check

CID_22750497_JID_2020_Energie_anion

-1 2
