%chk=JID_4043.chk
%mem=8GB
%nprocshared=4
# opt freq B3LYP/6-31G(d) empiricaldispersion=gd3bj scf=xqc

CID_117043631_JID_4043_neutraal

0 1
C          2.49200        0.00400       -0.01400
C          0.98979       -0.05232        0.07754
C          0.31361       -1.28505        0.15175
C         -1.08405       -1.26407        0.23589
C         -1.79413       -0.05798        0.25139
C         -1.13803        1.18208        0.19457
C          0.26305        1.15646        0.10967
C         -1.94832        2.48929        0.22246
C         -2.87531        2.54609       -1.01060
C         -2.80608        2.54658        1.50561
C         -1.07807        3.76638        0.20160
N          1.05326       -2.48832        0.17143
C          0.52828       -3.54556       -0.69297
C          1.32012       -2.91544        1.54783
H          2.93761       -0.19976        0.96435
H          2.86701       -0.72084       -0.74391
H          2.83371        0.99073       -0.34479
H         -1.64599       -2.19002        0.31025
H         -2.87858       -0.10795        0.31640
H          0.82892        2.08307        0.06129
H         -3.60192        1.72617       -1.01996
H         -3.44609        3.48180       -1.03337
H         -2.29836        2.48461       -1.94103
H         -2.17981        2.46935        2.40231
H         -3.36245        3.48924        1.56742
H         -3.54389        1.73805        1.54875
H         -0.40481        3.80924        1.06576
H         -0.47038        3.82679       -0.70876
H         -1.70021        4.66899        0.23217
H          1.27972       -4.33585       -0.79909
H         -0.37890       -4.00399       -0.28388
H          0.31718       -3.16577       -1.69916
H          1.81513       -2.12662        2.12536
H          0.39875       -3.20560        2.06639
H          1.99319       -3.77998        1.54375

--Link1--
%chk=JID_4043.chk
%mem=8GB
%nprocshared=4
# B3LYP/6-311++G(d,p) empiricaldispersion=gd3bj scf=xqc pop=npa geom=check

CID_117043631_JID_4043_Energie_neutraal

0 1

--Link1--
%chk=JID_4043.chk
%mem=8GB
%nprocshared=4
# B3LYP/6-311++G(d,p) empiricaldispersion=gd3bj scf=xqc pop=npa geom=check

CID_117043631_JID_4043_Energie_kation

1 2

--Link1--
%chk=JID_4043.chk
%mem=8GB
%nprocshared=4
# B3LYP/6-311++G(d,p) empiricaldispersion=gd3bj scf=xqc pop=npa geom=check

CID_117043631_JID_4043_Energie_anion

-1 2
