%chk=JID_1100.chk
%mem=8GB
%nprocshared=4
# opt freq B3LYP/6-31G(d) empiricaldispersion=gd3bj scf=xqc

CID_69740724_JID_1100_neutraal

0 1
C          0.95640        0.03962        0.08080
C          0.78948        1.22028       -0.86568
C          1.40815        0.97722       -2.25255
C          0.76155       -0.20690       -2.99870
C          0.95560       -0.14605       -4.52354
C         -0.17933        0.60691       -5.22264
C          0.34188        2.02909       -5.38618
C          1.66184        2.03832       -4.60356
C          1.41023        2.27384       -3.08967
N          2.14915        0.66094       -4.82655
C          2.63389        3.07403       -5.16472
H          0.42075       -0.84327       -0.28045
H          0.55615        0.29060        1.06835
H          2.01277       -0.22098        0.20009
H         -0.27769        1.45227       -0.96682
H          1.26202        2.09822       -0.40821
H          2.46436        0.71238       -2.09288
H          1.22549       -1.12974       -2.62575
H         -0.30535       -0.28214       -2.75620
H          1.04284       -1.16276       -4.92154
H         -1.11830        0.58548       -4.66030
H         -0.37596        0.17696       -6.21205
H         -0.37983        2.77010       -5.02696
H          0.50737        2.22896       -6.45287
H          0.46178        2.80714       -2.94587
H          2.18746        2.92917       -2.67400
H          2.38493        0.54577       -5.81309
H          3.60155        3.02736       -4.65223
H          2.82027        2.91664       -6.23330
H          2.23589        4.08761       -5.04350

--Link1--
%chk=JID_1100.chk
%mem=8GB
%nprocshared=4
# B3LYP/6-311++G(d,p) empiricaldispersion=gd3bj scf=xqc pop=npa geom=check

CID_69740724_JID_1100_Energie_neutraal

0 1

--Link1--
%chk=JID_1100.chk
%mem=8GB
%nprocshared=4
# B3LYP/6-311++G(d,p) empiricaldispersion=gd3bj scf=xqc pop=npa geom=check

CID_69740724_JID_1100_Energie_kation

1 2

--Link1--
%chk=JID_1100.chk
%mem=8GB
%nprocshared=4
# B3LYP/6-311++G(d,p) empiricaldispersion=gd3bj scf=xqc pop=npa geom=check

CID_69740724_JID_1100_Energie_anion

-1 2
