%chk=JID_1939.chk
%mem=8GB
%nprocshared=4
# opt=(cartesian,calcfc,maxcycle=500) freq B3LYP/6-31G(d) empiricaldispersion=gd3bj scf=xqc

CID_151981385_JID_1939_neutraal

0 1
O       -3.6953 -0.5000 0.0036
O       2.2723  1.6362  0.0123
N       -0.0854 -1.0010 0.0007
N       1.7202  0.4703  -0.0049
N       2.5142  -0.5272 -0.0025
N       3.2351  -1.4124 -0.0005
C       0.3113  0.2913  -0.0035
C       -0.5587 1.3697  -0.0059
C       -1.9237 1.1048  -0.0038
C       -2.3705 -0.2121 0.0013
C       -1.4195 -1.2197 0.0032
H       -0.2086 2.3962  -0.0097
H       -2.6290 1.9312  -0.0058
H       -1.7110 -2.2653 0.0068
H       -4.1977 0.3329  0.0015

--Link1--
%chk=JID_1939.chk
%mem=8GB
%nprocshared=4
# B3LYP/6-311++G(d,p) empiricaldispersion=gd3bj scf=xqc pop=npa geom=check

CID_151981385_JID_1939_Energie_neutraal

0 1

--Link1--
%chk=JID_1939.chk
%mem=8GB
%nprocshared=4
# B3LYP/6-311++G(d,p) empiricaldispersion=gd3bj scf=xqc pop=npa geom=check

CID_151981385_JID_1939_Energie_kation

1 2

--Link1--
%chk=JID_1939.chk
%mem=8GB
%nprocshared=4
# B3LYP/6-311++G(d,p) empiricaldispersion=gd3bj scf=xqc pop=npa geom=check

CID_151981385_JID_1939_Energie_anion

-1 2
