%chk=JID_9227.chk
%mem=8GB
%nprocshared=4
# opt freq B3LYP/6-31G(d) empiricaldispersion=gd3bj scf=xqc

CID_103806811_JID_9227_neutraal

0 1
C         -2.31600        0.00600       -0.01000
C         -0.87755       -0.29732        0.21574
N         -0.43344       -1.36604        0.83841
C          0.94942       -1.34817        0.86223
C          1.55193       -0.26940        0.24459
S          0.32878        0.78518       -0.34836
C          2.94795        0.09607        0.10115
O          3.33226        1.26879        0.07210
N          3.93376       -0.87085        0.10474
C          3.87086       -2.25443       -0.11998
C          4.67141       -3.04574        0.71646
C          4.65826       -4.43749        0.61734
C          3.86387       -5.05795       -0.34045
C          3.10103       -4.28378       -1.21988
C          3.12166       -2.87054       -1.13365
C          2.47487       -2.16435       -2.30354
C          1.13500       -2.80826       -2.70773
N          1.02569       -4.25905       -2.52580
C          2.30947       -4.92408       -2.33730
H         -2.59043        0.96088        0.44940
H         -2.53971        0.05251       -1.08050
H         -2.94529       -0.77320        0.43196
H          1.46542       -2.16097        1.35924
H          4.81332       -0.49652        0.43950
H          5.28656       -2.58793        1.48805
H          5.26386       -5.03674        1.29244
H          3.85813       -6.14282       -0.41292
H          3.17451       -2.24282       -3.14758
H          2.33049       -1.09602       -2.14486
H          0.93259       -2.55547       -3.75556
H          0.32823       -2.35156       -2.12353
H          0.51285       -4.67815       -3.29750
H          2.11426       -5.97530       -2.09739
H          2.89959       -4.90287       -3.26151

--Link1--
%chk=JID_9227.chk
%mem=8GB
%nprocshared=4
# B3LYP/6-311++G(d,p) empiricaldispersion=gd3bj scf=xqc pop=npa geom=check

CID_103806811_JID_9227_Energie_neutraal

0 1

--Link1--
%chk=JID_9227.chk
%mem=8GB
%nprocshared=4
# B3LYP/6-311++G(d,p) empiricaldispersion=gd3bj scf=xqc pop=npa geom=check

CID_103806811_JID_9227_Energie_kation

1 2

--Link1--
%chk=JID_9227.chk
%mem=8GB
%nprocshared=4
# B3LYP/6-311++G(d,p) empiricaldispersion=gd3bj scf=xqc pop=npa geom=check

CID_103806811_JID_9227_Energie_anion

-1 2
