%chk=JID_6900.chk
%mem=8GB
%nprocshared=4
# opt freq B3LYP/6-31G(d) empiricaldispersion=gd3bj scf=xqc

CID_64917088_JID_6900_neutraal

0 1
C          0.96235        0.06950       -0.06126
C          0.26716       -0.34653        1.23152
C          0.82327        0.33784        2.48581
S          0.61151        2.15049        2.59814
C          2.12353        2.79104        1.78516
C          3.43590        2.53661        2.53874
N          4.16973        1.36959        2.06885
C          4.53864        0.32684        2.86613
O          4.26627        0.17481        4.04664
C          5.34555       -0.64651        2.05939
C          5.48427        0.00836        0.69900
C          4.73330        1.29831        0.82795
O          4.65802        2.14170       -0.05282
C         -1.24121       -0.22371        1.19059
O         -2.00465       -0.63274        2.05206
O         -1.72998        0.37771        0.09247
H          0.72478        1.09804       -0.34853
H          0.64119       -0.57265       -0.88950
H          2.04854       -0.02840        0.02883
H          0.45630       -1.42413        1.33861
H          0.30912       -0.06919        3.36482
H          1.87384        0.07972        2.61522
H          2.16113        2.45347        0.74810
H          1.96955        3.87570        1.74846
H          4.09745        3.39369        2.35849
H          3.27758        2.47625        3.62100
H          6.32116       -0.80190        2.52858
H          4.81431       -1.60033        1.99095
H          6.53195        0.21084        0.45880
H          5.03792       -0.60487       -0.08913
H         -2.69809        0.40064        0.24542

--Link1--
%chk=JID_6900.chk
%mem=8GB
%nprocshared=4
# B3LYP/6-311++G(d,p) empiricaldispersion=gd3bj scf=xqc pop=npa geom=check

CID_64917088_JID_6900_Energie_neutraal

0 1

--Link1--
%chk=JID_6900.chk
%mem=8GB
%nprocshared=4
# B3LYP/6-311++G(d,p) empiricaldispersion=gd3bj scf=xqc pop=npa geom=check

CID_64917088_JID_6900_Energie_kation

1 2

--Link1--
%chk=JID_6900.chk
%mem=8GB
%nprocshared=4
# B3LYP/6-311++G(d,p) empiricaldispersion=gd3bj scf=xqc pop=npa geom=check

CID_64917088_JID_6900_Energie_anion

-1 2
