%chk=JID_3966.chk
%mem=8GB
%nprocshared=4
# opt freq B3LYP/6-31G(d) empiricaldispersion=gd3bj scf=xqc

CID_106383542_JID_3966_neutraal

0 1
C          1.06435        0.04149       -0.06432
C          0.53618        1.47480       -0.09274
C          0.89910        2.17088       -1.40304
C         -0.98084        1.47601        0.12422
N         -1.59420        1.88508        1.18476
C         -0.87910        2.47845        2.31358
C         -0.24345        1.42893        3.17219
C          0.94432        1.49301        3.78832
S          1.30863        0.01361        4.63351
C         -0.21101       -0.71835        4.09815
O         -0.56809       -1.85603        4.34651
N         -0.87488        0.22044        3.35225
N         -1.77257        0.96908       -0.86916
H          0.68960       -0.54596       -0.90931
H          0.76130       -0.47289        0.85307
H          2.15844        0.03332       -0.11105
H          1.03365        2.02699        0.70700
H          0.51380        1.62992       -2.27395
H          0.48422        3.18425       -1.43089
H          1.98634        2.24661       -1.51110
H         -0.16257        3.23994        1.98570
H         -1.61856        3.01315        2.92205
H          1.62127        2.33591        3.77343
H         -1.75793        0.01259        2.90423
H         -1.38131        0.26678       -1.48402
H         -2.72243        0.77919       -0.56834

--Link1--
%chk=JID_3966.chk
%mem=8GB
%nprocshared=4
# B3LYP/6-311++G(d,p) empiricaldispersion=gd3bj scf=xqc pop=npa geom=check

CID_106383542_JID_3966_Energie_neutraal

0 1

--Link1--
%chk=JID_3966.chk
%mem=8GB
%nprocshared=4
# B3LYP/6-311++G(d,p) empiricaldispersion=gd3bj scf=xqc pop=npa geom=check

CID_106383542_JID_3966_Energie_kation

1 2

--Link1--
%chk=JID_3966.chk
%mem=8GB
%nprocshared=4
# B3LYP/6-311++G(d,p) empiricaldispersion=gd3bj scf=xqc pop=npa geom=check

CID_106383542_JID_3966_Energie_anion

-1 2
