%chk=JID_3271.chk
%mem=8GB
%nprocshared=4
# opt freq B3LYP/6-31G(d) empiricaldispersion=gd3bj scf=xqc

CID_13129478_JID_3271_neutraal

0 1
C         -1.50500        0.02200       -0.20100
C         -0.66934        1.28155       -0.00015
C          0.70859        1.14852       -0.65258
N          1.39496       -0.05217       -0.18030
C          0.64487       -1.28297       -0.40081
C         -0.73198       -1.20783        0.26321
C          2.83130       -0.10732       -0.45903
C          3.42172       -0.13505       -1.87518
C          2.95302       -1.21542       -2.82319
C          2.03339       -0.49434       -3.77452
O          2.45746        0.86662       -3.77867
C          3.18166        1.12660       -2.65194
O          3.57989        2.23815       -2.34207
H         -2.44704        0.10424        0.35205
H         -1.76085       -0.08376       -1.26237
H         -1.19582        2.14567       -0.42097
H         -0.54966        1.47210        1.07406
H          0.58472        1.12971       -1.73995
H          1.28914        2.04382       -0.40073
H          1.18102       -2.13891        0.02564
H          0.50710       -1.48107       -1.46712
H         -0.61313       -1.17485        1.35376
H         -1.30424       -2.11327        0.03144
H          3.28274        0.74785        0.06363
H          3.23206       -0.98101        0.07345
H          4.51076       -0.23633       -1.77190
H          3.81789       -1.58657       -3.38927
H          2.50123       -2.08927       -2.34898
H          2.10420       -0.90011       -4.78826
H          0.98563       -0.53179       -3.46451

--Link1--
%chk=JID_3271.chk
%mem=8GB
%nprocshared=4
# B3LYP/6-311++G(d,p) empiricaldispersion=gd3bj scf=xqc pop=npa geom=check

CID_13129478_JID_3271_Energie_neutraal

0 1

--Link1--
%chk=JID_3271.chk
%mem=8GB
%nprocshared=4
# B3LYP/6-311++G(d,p) empiricaldispersion=gd3bj scf=xqc pop=npa geom=check

CID_13129478_JID_3271_Energie_kation

1 2

--Link1--
%chk=JID_3271.chk
%mem=8GB
%nprocshared=4
# B3LYP/6-311++G(d,p) empiricaldispersion=gd3bj scf=xqc pop=npa geom=check

CID_13129478_JID_3271_Energie_anion

-1 2
