%chk=JID_8349.chk
%mem=8GB
%nprocshared=4
# opt freq B3LYP/6-31G(d) empiricaldispersion=gd3bj scf=xqc

CID_137265644_JID_8349_neutraal

0 1
C          1.03350        0.04942       -0.08022
C          1.89267       -0.46234       -1.22164
O          2.12579       -1.85094       -0.99850
C          3.14733       -2.43112       -1.70911
C          3.66125       -1.91570       -2.90405
C          4.69520       -2.57899       -3.56965
C          5.21121       -3.76595       -3.05585
C          4.69260       -4.29375       -1.87363
C          3.67183       -3.63188       -1.18196
N          3.16018       -4.24147       -0.02463
C          3.20341       -3.67215        1.12859
C          3.84248       -2.42890        1.66861
C          4.95562       -1.91630        1.12501
N          3.33961       -1.87886        2.82071
N          2.60088       -2.51282        3.60797
C          2.20075       -3.80096        3.32052
O          1.54405       -4.48233        4.10655
N          2.50511       -4.33029        2.09681
H          0.09198       -0.50708       -0.02549
H          0.80899        1.11211       -0.20756
H          1.54238       -0.09082        0.87903
H          1.36154       -0.32377       -2.16975
H          2.83422        0.09959       -1.23294
H          3.26224       -1.01100       -3.35075
H          5.08680       -2.17580       -4.50065
H          6.00460       -4.29013       -3.58242
H          5.07837       -5.23300       -1.48597
H          5.42149       -1.03821        1.56111
H          5.44905       -2.34889        0.26522
H          2.06758       -5.20311        1.85119

--Link1--
%chk=JID_8349.chk
%mem=8GB
%nprocshared=4
# B3LYP/6-311++G(d,p) empiricaldispersion=gd3bj scf=xqc pop=npa geom=check

CID_137265644_JID_8349_Energie_neutraal

0 1

--Link1--
%chk=JID_8349.chk
%mem=8GB
%nprocshared=4
# B3LYP/6-311++G(d,p) empiricaldispersion=gd3bj scf=xqc pop=npa geom=check

CID_137265644_JID_8349_Energie_kation

1 2

--Link1--
%chk=JID_8349.chk
%mem=8GB
%nprocshared=4
# B3LYP/6-311++G(d,p) empiricaldispersion=gd3bj scf=xqc pop=npa geom=check

CID_137265644_JID_8349_Energie_anion

-1 2
