%chk=JID_6297.chk
%mem=8GB
%nprocshared=4
# opt freq B3LYP/6-31G(d) empiricaldispersion=gd3bj scf=xqc

CID_62514467_JID_6297_neutraal

0 1
C          0.98440        0.07518        0.06407
C          0.23063        1.39652        0.05263
C          0.49462        2.25594       -1.18816
N         -0.27236        1.78013       -2.34725
C         -1.06137        2.77952       -3.09020
C         -0.19569        3.82120       -3.78840
C          0.24929        0.74916       -3.13738
C         -0.50524       -0.39806       -3.46442
C          0.04786       -1.42759       -4.25054
C          1.36023       -1.34259       -4.72433
C          2.10785       -0.20433       -4.42234
C          1.56193        0.81741       -3.63670
C          1.92850       -2.42637       -5.59050
C         -1.89113       -0.58372       -2.96773
O         -2.81446        0.20713       -2.97634
O         -2.05874       -1.83151       -2.47946
H          2.05450        0.22931       -0.10631
H          0.60669       -0.61418       -0.69443
H          0.86490       -0.41387        1.03644
H         -0.84340        1.20674        0.16518
H          0.54685        1.96729        0.93452
H          0.16413        3.27237       -0.93765
H          1.56828        2.33465       -1.39074
H         -1.70587        2.30241       -3.83734
H         -1.73388        3.28525       -2.38674
H          0.43054        3.36777       -4.56259
H         -0.83053        4.57069       -4.27199
H          0.46149        4.34124       -3.08484
H         -0.55482       -2.30254       -4.48692
H          3.12432       -0.09829       -4.79533
H          2.17625        1.69132       -3.43604
H          1.66270       -2.24723       -6.63683
H          3.01960       -2.46512       -5.50560
H          1.54455       -3.40657       -5.28883
H         -2.98368       -1.81992       -2.15774

--Link1--
%chk=JID_6297.chk
%mem=8GB
%nprocshared=4
# B3LYP/6-311++G(d,p) empiricaldispersion=gd3bj scf=xqc pop=npa geom=check

CID_62514467_JID_6297_Energie_neutraal

0 1

--Link1--
%chk=JID_6297.chk
%mem=8GB
%nprocshared=4
# B3LYP/6-311++G(d,p) empiricaldispersion=gd3bj scf=xqc pop=npa geom=check

CID_62514467_JID_6297_Energie_kation

1 2

--Link1--
%chk=JID_6297.chk
%mem=8GB
%nprocshared=4
# B3LYP/6-311++G(d,p) empiricaldispersion=gd3bj scf=xqc pop=npa geom=check

CID_62514467_JID_6297_Energie_anion

-1 2
