%chk=JID_6861.chk
%mem=8GB
%nprocshared=4
# opt freq B3LYP/6-31G(d) empiricaldispersion=gd3bj scf=xqc

CID_117124472_JID_6861_neutraal

0 1
C          1.08260       -0.05136       -0.02323
C          0.45067        0.37863       -1.34628
C          1.15531       -0.25304       -2.54654
N         -0.99121        0.14731       -1.36185
C         -1.65822       -1.04992       -1.29106
C         -3.01063       -0.73097       -1.35561
C         -3.04544        0.70393       -1.42226
N         -1.80653        1.21139       -1.39869
C         -4.23572        1.66226       -1.51126
C         -5.09681        1.36010       -2.75368
C         -5.09737        1.57322       -0.23606
C         -3.77546        3.13861       -1.63909
C         -4.15356       -1.68185       -1.39282
O         -4.20734       -2.39735       -2.62310
O         -0.96506       -2.19137       -1.23483
C         -1.49582       -3.22143       -0.41252
H          1.04422       -1.13641        0.11658
H          0.56723        0.41201        0.82530
H          2.13456        0.25098        0.01604
H          0.58141        1.46626       -1.43150
H          1.13570       -1.34672       -2.50640
H          0.68143        0.05498       -3.48498
H          2.20518        0.05725       -2.58141
H         -5.56409        0.37310       -2.71074
H         -5.90732        2.09070       -2.85991
H         -4.49375        1.39577       -3.66871
H         -4.50118        1.79418        0.65744
H         -5.92729        2.28864       -0.26825
H         -5.53372        0.58081       -0.09509
H         -3.17848        3.45083       -0.77378
H         -3.16701        3.29254       -2.53836
H         -4.63374        3.81785       -1.70420
H         -4.08350       -2.40705       -0.57720
H         -5.11594       -1.18691       -1.26547
H         -3.28620       -2.55210       -2.89780
H         -0.68156       -3.91192       -0.17265
H         -1.89020       -2.82667        0.53019
H         -2.26156       -3.78481       -0.95234

--Link1--
%chk=JID_6861.chk
%mem=8GB
%nprocshared=4
# B3LYP/6-311++G(d,p) empiricaldispersion=gd3bj scf=xqc pop=npa geom=check

CID_117124472_JID_6861_Energie_neutraal

0 1

--Link1--
%chk=JID_6861.chk
%mem=8GB
%nprocshared=4
# B3LYP/6-311++G(d,p) empiricaldispersion=gd3bj scf=xqc pop=npa geom=check

CID_117124472_JID_6861_Energie_kation

1 2

--Link1--
%chk=JID_6861.chk
%mem=8GB
%nprocshared=4
# B3LYP/6-311++G(d,p) empiricaldispersion=gd3bj scf=xqc pop=npa geom=check

CID_117124472_JID_6861_Energie_anion

-1 2
