%chk=JID_6528.chk
%mem=8GB
%nprocshared=4
# opt freq B3LYP/6-31G(d) empiricaldispersion=gd3bj scf=xqc

CID_106909893_JID_6528_neutraal

0 1
C          1.05388        0.04237       -0.07281
C          0.61179       -1.25213       -0.73603
C          0.59974       -2.47720        0.19052
C          0.37234       -2.26001        1.68580
C         -0.24084       -3.61200       -0.37837
O          0.34432       -4.55300       -0.93660
N         -1.59164       -3.71759       -0.31777
C         -2.67644       -2.92873        0.09905
C         -3.91637       -3.58201        0.16816
C         -5.07527       -2.90598        0.56461
C         -5.02741       -1.54803        0.89006
C         -3.79918       -0.88795        0.79803
C         -2.64041       -1.57352        0.40463
C         -6.27423       -0.81328        1.32088
N         -7.24447       -0.74480        0.22921
C         -8.41649        0.02432        0.61979
H          0.34443        0.36361        0.69538
H          1.11930        0.84185       -0.81799
H          2.04107       -0.06852        0.38678
H         -0.35473       -1.10182       -1.22636
H          1.30160       -1.46372       -1.56487
H          1.62978       -2.86826        0.14956
H         -0.48917       -1.63470        1.91642
H          0.23057       -3.21671        2.20094
H          1.24556       -1.77490        2.13643
H         -1.85142       -4.63157       -0.67522
H         -4.00195       -4.63888       -0.07555
H         -6.02152       -3.44193        0.61022
H         -3.72827        0.17379        1.02562
H         -1.74040       -0.98597        0.33071
H         -6.70217       -1.33690        2.18484
H         -6.00770        0.19716        1.65573
H         -6.80087       -0.30508       -0.57660
H         -8.15513        1.05919        0.86398
H         -9.13172        0.04479       -0.20820
H         -8.92029       -0.42995        1.47912

--Link1--
%chk=JID_6528.chk
%mem=8GB
%nprocshared=4
# B3LYP/6-311++G(d,p) empiricaldispersion=gd3bj scf=xqc pop=npa geom=check

CID_106909893_JID_6528_Energie_neutraal

0 1

--Link1--
%chk=JID_6528.chk
%mem=8GB
%nprocshared=4
# B3LYP/6-311++G(d,p) empiricaldispersion=gd3bj scf=xqc pop=npa geom=check

CID_106909893_JID_6528_Energie_kation

1 2

--Link1--
%chk=JID_6528.chk
%mem=8GB
%nprocshared=4
# B3LYP/6-311++G(d,p) empiricaldispersion=gd3bj scf=xqc pop=npa geom=check

CID_106909893_JID_6528_Energie_anion

-1 2
