%chk=JID_9625.chk
%mem=8GB
%nprocshared=4
# opt freq B3LYP/6-31G(d) empiricaldispersion=gd3bj scf=xqc

CID_104071753_JID_9625_neutraal

0 1
C          0.96370       -0.02227       -0.09048
C          0.30771       -0.44486        1.22209
N          0.46095        0.55481        2.27452
C         -0.56860        0.52029        3.32559
C         -0.50608       -0.55223        4.39926
C         -0.69714       -1.89745        4.09603
C         -0.66819       -2.83327        5.12521
C         -0.47221       -2.40507        6.43224
C         -0.30246       -1.04661        6.66983
N         -0.31569       -0.12453        5.67777
C         -0.13079       -0.54338        8.07137
C          1.82643        0.80408        2.75273
C          2.50915       -0.31438        3.46868
C          2.93426       -0.46952        4.77247
C          3.51734       -1.75590        4.85703
C          3.42506       -2.31247        3.59672
O          2.83720       -1.42279        2.74312
C          3.82385       -3.60194        3.09651
O          3.66214       -4.01996        1.95239
H          0.61771        0.96808       -0.40470
H          0.70460       -0.73366       -0.88175
H          2.05477       -0.00217       -0.01195
H         -0.75921       -0.57747        1.00168
H          0.68257       -1.42846        1.51964
H         -1.56362        0.47242        2.86325
H         -0.55711        1.49727        3.82811
H         -0.86970       -2.22281        3.07687
H         -0.80870       -3.88809        4.90773
H         -0.46242       -3.11943        7.24855
H          0.11183        0.52413        8.07474
H         -1.05718       -0.68625        8.63649
H          0.68244       -1.07718        8.57278
H          2.46126        1.11094        1.91299
H          1.81094        1.68308        3.41099
H          2.80539        0.25289        5.56714
H          3.93751       -2.22393        5.73605
H          4.31153       -4.25007        3.84482

--Link1--
%chk=JID_9625.chk
%mem=8GB
%nprocshared=4
# B3LYP/6-311++G(d,p) empiricaldispersion=gd3bj scf=xqc pop=npa geom=check

CID_104071753_JID_9625_Energie_neutraal

0 1

--Link1--
%chk=JID_9625.chk
%mem=8GB
%nprocshared=4
# B3LYP/6-311++G(d,p) empiricaldispersion=gd3bj scf=xqc pop=npa geom=check

CID_104071753_JID_9625_Energie_kation

1 2

--Link1--
%chk=JID_9625.chk
%mem=8GB
%nprocshared=4
# B3LYP/6-311++G(d,p) empiricaldispersion=gd3bj scf=xqc pop=npa geom=check

CID_104071753_JID_9625_Energie_anion

-1 2
