%chk=JID_4097.chk
%mem=8GB
%nprocshared=4
# opt freq B3LYP/6-31G(d) empiricaldispersion=gd3bj scf=xqc

CID_143269538_JID_4097_neutraal

0 1
C          0.92208       -0.04920        0.03882
C          0.69860        0.88967        1.22348
C          0.77716        2.32485        0.78226
C         -0.18757        3.26068        0.68795
C         -1.61031        3.03924        0.98985
C         -2.32210        3.82463        1.83287
C         -1.88667        5.00812        2.64743
O         -2.78162        6.09829        2.41487
C         -2.46389        6.85609        1.25460
C         -2.34142        1.91982        0.26175
C         -2.34440        2.08357       -1.25184
N          0.08485        4.53314        0.22876
C          1.27690        5.16724        0.02893
O          1.34448        6.32487       -0.36424
H          0.14879        0.08128       -0.72477
H          0.89416       -1.09074        0.37453
H          1.89673        0.12826       -0.42849
H         -0.24027        0.65568        1.73091
H          1.48655        0.71625        1.96671
H          1.79358        2.57991        0.49441
H         -3.37840        3.59810        1.97982
H         -1.99004        4.74406        3.70547
H         -0.84954        5.31949        2.50079
H         -1.44014        7.23872        1.30680
H         -2.60071        6.25529        0.35085
H         -3.14884        7.70709        1.20097
H         -1.93062        0.94190        0.52181
H         -3.38887        1.87702        0.58978
H         -1.33314        2.02525       -1.66564
H         -2.93763        1.28532       -1.71001
H         -2.78372        3.04263       -1.54426
H         -0.70942        5.13061        0.03899
H          2.17524        4.58421        0.27446

--Link1--
%chk=JID_4097.chk
%mem=8GB
%nprocshared=4
# B3LYP/6-311++G(d,p) empiricaldispersion=gd3bj scf=xqc pop=npa geom=check

CID_143269538_JID_4097_Energie_neutraal

0 1

--Link1--
%chk=JID_4097.chk
%mem=8GB
%nprocshared=4
# B3LYP/6-311++G(d,p) empiricaldispersion=gd3bj scf=xqc pop=npa geom=check

CID_143269538_JID_4097_Energie_kation

1 2

--Link1--
%chk=JID_4097.chk
%mem=8GB
%nprocshared=4
# B3LYP/6-311++G(d,p) empiricaldispersion=gd3bj scf=xqc pop=npa geom=check

CID_143269538_JID_4097_Energie_anion

-1 2
