%chk=JID_8158.chk
%mem=8GB
%nprocshared=4
# opt freq B3LYP/6-31G(d) empiricaldispersion=gd3bj scf=xqc

CID_82479317_JID_8158_neutraal

0 1
C          1.09694       -0.02453       -0.00058
C          0.55702       -0.13469       -1.40203
C          0.55359       -1.39685       -2.02340
C          0.05471       -1.55280       -3.31453
C         -0.41523       -0.44404       -4.01797
C         -0.42096        0.81261       -3.41604
C          0.07201        0.98722       -2.11111
C          0.05666        2.32570       -1.53667
C         -0.88393        3.32013       -1.39530
C         -0.19292        4.38114       -0.76163
N          1.08537        4.05461       -0.52787
O          1.24022        2.77047       -1.02400
C         -0.70807        5.70764       -0.35709
N         -2.18077        3.27829       -1.76736
O         -0.89048       -0.51545       -5.30279
C         -0.50447       -1.74388       -5.93068
C         -0.75322       -2.92021       -5.00123
O          0.06584       -2.82324       -3.83044
H          1.17207       -1.00905        0.47407
H          0.43389        0.57811        0.62845
H          2.09689        0.41978       -0.01424
H          0.92919       -2.27076       -1.49561
H         -0.78693        1.66641       -3.98278
H         -1.17157        6.21524       -1.20904
H         -1.46055        5.59900        0.43053
H          0.09015        6.35283        0.02448
H         -2.84887        3.97897       -1.46117
H         -2.61532        2.40061       -2.04324
H          0.55251       -1.67336       -6.21629
H         -1.09831       -1.85056       -6.84382
H         -1.80347       -2.96894       -4.68795
H         -0.50310       -3.85966       -5.50401

--Link1--
%chk=JID_8158.chk
%mem=8GB
%nprocshared=4
# B3LYP/6-311++G(d,p) empiricaldispersion=gd3bj scf=xqc pop=npa geom=check

CID_82479317_JID_8158_Energie_neutraal

0 1

--Link1--
%chk=JID_8158.chk
%mem=8GB
%nprocshared=4
# B3LYP/6-311++G(d,p) empiricaldispersion=gd3bj scf=xqc pop=npa geom=check

CID_82479317_JID_8158_Energie_kation

1 2

--Link1--
%chk=JID_8158.chk
%mem=8GB
%nprocshared=4
# B3LYP/6-311++G(d,p) empiricaldispersion=gd3bj scf=xqc pop=npa geom=check

CID_82479317_JID_8158_Energie_anion

-1 2
