%chk=JID_7434.chk
%mem=8GB
%nprocshared=4
# opt freq B3LYP/6-31G(d) empiricaldispersion=gd3bj scf=xqc

CID_100997873_JID_7434_neutraal

0 1
C          0.98420       -0.03868        0.09085
C          0.20599       -1.27820       -0.23196
O         -1.01398       -1.32986       -0.26402
O          1.05705       -2.30029       -0.51980
C          0.44586       -3.56390       -0.79617
C          0.79679       -4.51343        0.33078
O          0.03168       -4.69320        1.28239
C          2.20747       -5.10103        0.33910
O          2.78643       -5.48691       -0.90452
C          2.14206       -6.49297       -1.54637
O          1.07142       -6.96824       -1.20740
C          2.89551       -6.92750       -2.75233
C          2.28952       -7.85553       -3.61054
C          2.96056       -8.30320       -4.75002
C          4.24011       -7.82955       -5.03606
C          4.85100       -6.90826       -4.18563
C          4.18238       -6.45587       -3.04519
H          0.32458        0.68689        0.57529
H          1.38533        0.39366       -0.82869
H          1.79372       -0.27459        0.78699
H         -0.64346       -3.52197       -0.90108
H          0.84301       -3.93991       -1.74270
H          2.86370       -4.33781        0.77152
H          2.22569       -5.96185        1.01871
H          1.29270       -8.23624       -3.39423
H          2.48579       -9.02367       -5.41197
H          4.76343       -8.18166       -5.92212
H          5.85119       -6.54467       -4.40970
H          4.68123       -5.74321       -2.39351

--Link1--
%chk=JID_7434.chk
%mem=8GB
%nprocshared=4
# B3LYP/6-311++G(d,p) empiricaldispersion=gd3bj scf=xqc pop=npa geom=check

CID_100997873_JID_7434_Energie_neutraal

0 1

--Link1--
%chk=JID_7434.chk
%mem=8GB
%nprocshared=4
# B3LYP/6-311++G(d,p) empiricaldispersion=gd3bj scf=xqc pop=npa geom=check

CID_100997873_JID_7434_Energie_kation

1 2

--Link1--
%chk=JID_7434.chk
%mem=8GB
%nprocshared=4
# B3LYP/6-311++G(d,p) empiricaldispersion=gd3bj scf=xqc pop=npa geom=check

CID_100997873_JID_7434_Energie_anion

-1 2
