%chk=JID_7810.chk
%mem=8GB
%nprocshared=4
# opt freq B3LYP/6-31G(d) empiricaldispersion=gd3bj scf=xqc

CID_38655246_JID_7810_neutraal

0 1
C          0.95627       -0.03982        0.08063
C          0.45729       -0.25074       -1.33552
C         -1.04214        0.05407       -1.45989
O         -1.91197       -0.40952       -0.73631
N         -1.22949        0.84506       -2.55924
C         -0.02718        1.26782       -3.04221
O          0.17015        1.99598       -4.00047
N          0.97199        0.72587       -2.26555
C         -2.51134        1.23661       -3.12343
C         -2.77889        0.56826       -4.48210
S         -4.06071       -0.74369       -4.48119
C         -3.32414       -1.95430       -3.34790
C         -4.20826       -2.20152       -2.13066
C         -3.64829       -3.49389       -1.54394
C         -3.01415       -4.24356       -2.71850
C         -3.21216       -3.35256       -3.94563
C          0.73153       -1.66586       -1.84038
H          0.51196       -0.76445        0.77184
H          0.69950        0.96084        0.44746
H          2.04596       -0.13950        0.13401
H          1.94275        0.84533       -2.52617
H         -3.31041        1.04326       -2.40033
H         -2.45948        2.32130       -3.27902
H         -3.15776        1.33162       -5.17077
H         -1.86856        0.15920       -4.93289
H         -2.32483       -1.63684       -3.04662
H         -4.19138       -1.38084       -1.40836
H         -5.25396       -2.36549       -2.42220
H         -4.43022       -4.08355       -1.05530
H         -2.88411       -3.27068       -0.79011
H         -3.46456       -5.23034       -2.86371
H         -1.94546       -4.39427       -2.52495
H         -4.13362       -3.64710       -4.46317
H         -2.37997       -3.44462       -4.65083
H          1.80814       -1.86506       -1.88190
H          0.26765       -2.41486       -1.18923
H          0.33094       -1.81979       -2.84966

--Link1--
%chk=JID_7810.chk
%mem=8GB
%nprocshared=4
# B3LYP/6-311++G(d,p) empiricaldispersion=gd3bj scf=xqc pop=npa geom=check

CID_38655246_JID_7810_Energie_neutraal

0 1

--Link1--
%chk=JID_7810.chk
%mem=8GB
%nprocshared=4
# B3LYP/6-311++G(d,p) empiricaldispersion=gd3bj scf=xqc pop=npa geom=check

CID_38655246_JID_7810_Energie_kation

1 2

--Link1--
%chk=JID_7810.chk
%mem=8GB
%nprocshared=4
# B3LYP/6-311++G(d,p) empiricaldispersion=gd3bj scf=xqc pop=npa geom=check

CID_38655246_JID_7810_Energie_anion

-1 2
