%chk=JID_6736.chk
%mem=8GB
%nprocshared=4
# opt freq B3LYP/6-31G(d) empiricaldispersion=gd3bj scf=xqc

CID_61489349_JID_6736_neutraal

0 1
C          1.00115       -0.02291        0.09733
N          0.53427       -0.38970       -1.23110
C         -0.86817       -0.68081       -1.38753
C         -1.34157       -2.01584       -1.90603
C         -1.59744       -1.64445       -0.48153
C          1.40737       -0.12411       -2.29374
O          2.56621        0.25259       -2.08956
C          0.88676       -0.30599       -3.71459
S          1.34629       -1.94187       -4.36536
C          3.10414       -1.67908       -4.58387
C          4.02882       -2.60149       -4.05483
C          5.37802       -2.36758       -4.32463
C          5.76321       -1.22125       -5.01431
C          4.77624       -0.35855       -5.45844
N          3.45658       -0.56701       -5.27474
N          3.64821       -3.82802       -3.47139
H          0.35194       -0.42849        0.87637
H          1.01841        1.06898        0.17161
H          2.01546       -0.40356        0.25320
H         -1.43740        0.19684       -1.68974
H         -2.18098       -2.02472       -2.59153
H         -0.61543       -2.79978       -2.08673
H         -1.04572       -2.19024        0.27472
H         -2.61353       -1.39898       -0.19480
H         -0.19920       -0.20236       -3.76022
H          1.28505        0.50013       -4.33957
H          6.13449       -3.07638       -4.00124
H          6.80883       -1.01419       -5.21169
H          5.02973        0.54757       -6.00117
H          2.69678       -3.78930       -3.10894
H          4.31377       -4.17605       -2.78951

--Link1--
%chk=JID_6736.chk
%mem=8GB
%nprocshared=4
# B3LYP/6-311++G(d,p) empiricaldispersion=gd3bj scf=xqc pop=npa geom=check

CID_61489349_JID_6736_Energie_neutraal

0 1

--Link1--
%chk=JID_6736.chk
%mem=8GB
%nprocshared=4
# B3LYP/6-311++G(d,p) empiricaldispersion=gd3bj scf=xqc pop=npa geom=check

CID_61489349_JID_6736_Energie_kation

1 2

--Link1--
%chk=JID_6736.chk
%mem=8GB
%nprocshared=4
# B3LYP/6-311++G(d,p) empiricaldispersion=gd3bj scf=xqc pop=npa geom=check

CID_61489349_JID_6736_Energie_anion

-1 2
