%chk=JID_7933.chk
%mem=8GB
%nprocshared=4
# opt freq B3LYP/6-31G(d) empiricaldispersion=gd3bj scf=xqc

CID_22044486_JID_7933_neutraal

0 1
C          1.00198       -0.08700       -0.04926
C          0.91608       -0.70762       -1.43487
C          1.22413       -2.20668       -1.45291
C          0.29769       -3.08339       -0.60397
C         -1.19389       -2.98942       -0.94062
C         -1.56658       -3.33227       -2.38638
C         -1.16154       -4.73172       -2.86104
C         -1.67108       -5.90529       -2.00758
C         -3.20865       -5.99443       -1.87509
C         -3.80818       -6.20319       -3.25917
O         -3.44879       -7.03390       -4.08500
O         -4.80948       -5.29753       -3.49901
O         -5.45458       -5.66146       -4.77411
C         -3.71582       -7.07743       -0.85930
C         -3.26233       -6.71010        0.57139
C         -5.26033       -7.11930       -0.85014
C         -3.19204       -8.48940       -1.18037
H          0.22344       -0.47569        0.61361
H          0.86960        0.99774       -0.11493
H          1.97675       -0.28185        0.40890
H         -0.07417       -0.51481       -1.86141
H          1.63711       -0.20085       -2.08779
H          1.20517       -2.55487       -2.49227
H          2.25362       -2.35914       -1.10455
H          0.62722       -4.12496       -0.69760
H          0.42985       -2.82982        0.45478
H         -1.74508       -3.64666       -0.25751
H         -1.55204       -1.97638       -0.72188
H         -2.64960       -3.20842       -2.50393
H         -1.11670       -2.59526       -3.06234
H         -1.50481       -4.85707       -3.89516
H         -0.06740       -4.79271       -2.90690
H         -1.28502       -6.82661       -2.46142
H         -1.20764       -5.83729       -1.01921
H         -3.56690       -5.02338       -1.50885
H         -4.68499       -6.08856       -5.20604
H         -3.56821       -5.69114        0.83364
H         -3.70359       -7.38785        1.31171
H         -2.17638       -6.77810        0.68810
H         -5.66346       -7.47195       -1.80544
H         -5.63352       -7.79930       -0.07540
H         -5.68056       -6.12738       -0.64949
H         -3.50640       -8.82341       -2.17387
H         -2.09932       -8.53712       -1.13571
H         -3.57464       -9.22085       -0.45858

--Link1--
%chk=JID_7933.chk
%mem=8GB
%nprocshared=4
# B3LYP/6-311++G(d,p) empiricaldispersion=gd3bj scf=xqc pop=npa geom=check

CID_22044486_JID_7933_Energie_neutraal

0 1

--Link1--
%chk=JID_7933.chk
%mem=8GB
%nprocshared=4
# B3LYP/6-311++G(d,p) empiricaldispersion=gd3bj scf=xqc pop=npa geom=check

CID_22044486_JID_7933_Energie_kation

1 2

--Link1--
%chk=JID_7933.chk
%mem=8GB
%nprocshared=4
# B3LYP/6-311++G(d,p) empiricaldispersion=gd3bj scf=xqc pop=npa geom=check

CID_22044486_JID_7933_Energie_anion

-1 2
