%chk=JID_5353.chk
%mem=8GB
%nprocshared=4
# opt freq B3LYP/6-31G(d) empiricaldispersion=gd3bj scf=xqc

CID_21341651_JID_5353_neutraal

0 1
C          0.90721        0.01993       -0.03150
C          0.81799       -0.65784        1.32184
C          1.38236        0.20704        2.42762
O          0.64888        0.85759        3.17139
N          2.73395        0.29797        2.58632
C          3.77680       -0.50818        1.96385
C          3.95894       -1.84341        2.68158
C          5.05655       -2.65511        1.99869
N          6.33734       -1.93337        1.97227
C          6.20797       -0.60443        1.31254
C          5.10259        0.24673        1.95287
C          7.52335        0.17748        1.36960
O          8.23448        0.43718        0.40958
O          7.90035        0.54851        2.61018
C          7.34817       -2.76265        1.30312
H          0.42008        1.00066       -0.00805
H          0.41036       -0.58877       -0.79336
H          1.94148        0.17837       -0.34771
H         -0.23287       -0.85906        1.56213
H          1.31971       -1.62882        1.30356
H          2.98551        0.85696        3.39499
H          3.48034       -0.70676        0.92962
H          3.02526       -2.41705        2.67658
H          4.21364       -1.67733        3.73666
H          4.73635       -2.91444        0.98041
H          5.17519       -3.59584        2.54995
H          5.96317       -0.74253        0.24987
H          4.99295        1.19049        1.40243
H          5.37366        0.52883        2.97972
H          8.77583        0.96729        2.48259
H          7.11418       -2.92007        0.24380
H          8.34382       -2.31369        1.37660
H          7.42160       -3.74350        1.78658

--Link1--
%chk=JID_5353.chk
%mem=8GB
%nprocshared=4
# B3LYP/6-311++G(d,p) empiricaldispersion=gd3bj scf=xqc pop=npa geom=check

CID_21341651_JID_5353_Energie_neutraal

0 1

--Link1--
%chk=JID_5353.chk
%mem=8GB
%nprocshared=4
# B3LYP/6-311++G(d,p) empiricaldispersion=gd3bj scf=xqc pop=npa geom=check

CID_21341651_JID_5353_Energie_kation

1 2

--Link1--
%chk=JID_5353.chk
%mem=8GB
%nprocshared=4
# B3LYP/6-311++G(d,p) empiricaldispersion=gd3bj scf=xqc pop=npa geom=check

CID_21341651_JID_5353_Energie_anion

-1 2
