%chk=JID_4019.chk
%mem=8GB
%nprocshared=4
# opt freq B3LYP/6-31G(d) empiricaldispersion=gd3bj scf=xqc

CID_134933290_JID_4019_neutraal

0 1
C          2.51500        0.00400        0.06500
C          1.50455        0.98467       -0.47236
C          1.56855        2.33110       -0.36951
C          0.43530        3.21722       -0.86527
C         -0.87363        2.47015       -1.11340
C         -0.61090        1.20779       -1.91377
C          0.34407        0.28603       -1.16146
S          2.84874        3.20847        0.43729
C          4.41321        2.85214       -0.45807
C          5.36254        2.09957        0.49457
C          6.35056        1.16735       -0.19245
C          6.77037        1.70926       -1.54519
C          5.58184        1.74019       -2.49315
C          4.29521        2.31577       -1.89132
H          2.00484       -0.88216        0.46125
H          3.19531       -0.33259       -0.72200
H          3.08810        0.39922        0.90215
H          0.22693        4.01686       -0.14304
H          0.75696        3.70235       -1.79583
H         -1.34342        2.21172       -0.15551
H         -1.57577        3.11907       -1.64866
H         -1.55178        0.68197       -2.11268
H         -0.18065        1.47161       -2.88783
H          0.72919       -0.46085       -1.86632
H         -0.22434       -0.26015       -0.39714
H          4.86121        3.84932       -0.57345
H          5.93681        2.85168        1.05498
H          4.83589        1.52575        1.26387
H          5.89459        0.17697       -0.31474
H          7.22834        1.03063        0.44980
H          7.55861        1.07732       -1.96977
H          7.19006        2.71596       -1.43487
H          5.37247        0.71169       -2.81899
H          5.85023        2.28900       -3.40274
H          3.54159        1.53368       -1.97913
H          3.93833        3.12569       -2.54182

--Link1--
%chk=JID_4019.chk
%mem=8GB
%nprocshared=4
# B3LYP/6-311++G(d,p) empiricaldispersion=gd3bj scf=xqc pop=npa geom=check

CID_134933290_JID_4019_Energie_neutraal

0 1

--Link1--
%chk=JID_4019.chk
%mem=8GB
%nprocshared=4
# B3LYP/6-311++G(d,p) empiricaldispersion=gd3bj scf=xqc pop=npa geom=check

CID_134933290_JID_4019_Energie_kation

1 2

--Link1--
%chk=JID_4019.chk
%mem=8GB
%nprocshared=4
# B3LYP/6-311++G(d,p) empiricaldispersion=gd3bj scf=xqc pop=npa geom=check

CID_134933290_JID_4019_Energie_anion

-1 2
