%chk=JID_3275.chk
%mem=8GB
%nprocshared=4
# opt freq B3LYP/6-31G(d) empiricaldispersion=gd3bj scf=xqc

CID_84073367_JID_3275_neutraal

0 1
C          0.91917        0.04981        0.03141
C          0.30113        1.23736        0.79578
C          0.91803        2.55978        0.27921
C          0.36763        3.09938       -1.02525
O         -0.31405        4.11873       -1.09105
N          0.73381        2.44778       -2.16312
N         -1.17806        1.17727        0.74719
C         -1.85516        2.30703        1.41163
C         -1.91065        1.91908        2.87662
C         -2.17691        0.41635        2.83327
C         -1.75032       -0.00825        1.41969
C         -1.44685       -0.36965        3.92428
N         -1.90610        0.00482        5.25814
H          0.43673       -0.10464       -0.93917
H          0.82835       -0.88337        0.59605
H          1.99051        0.20045       -0.14079
H          0.63466        1.13855        1.83795
H          0.78522        3.34521        1.03425
H          2.00523        2.45693        0.16789
H          1.14804        1.52896       -2.16139
H          0.30977        2.77445       -3.02180
H         -2.87374        2.38614        1.00955
H         -1.39280        3.28483        1.26351
H         -0.95598        2.14615        3.36599
H         -2.69986        2.45749        3.41102
H         -3.25794        0.24484        2.93148
H         -1.10543       -0.89050        1.42080
H         -2.64719       -0.30160        0.85828
H         -1.62703       -1.44150        3.78516
H         -0.36454       -0.21099        3.85630
H         -1.38744       -0.52531        5.95750
H         -1.70007        0.98686        5.43630

--Link1--
%chk=JID_3275.chk
%mem=8GB
%nprocshared=4
# B3LYP/6-311++G(d,p) empiricaldispersion=gd3bj scf=xqc pop=npa geom=check

CID_84073367_JID_3275_Energie_neutraal

0 1

--Link1--
%chk=JID_3275.chk
%mem=8GB
%nprocshared=4
# B3LYP/6-311++G(d,p) empiricaldispersion=gd3bj scf=xqc pop=npa geom=check

CID_84073367_JID_3275_Energie_kation

1 2

--Link1--
%chk=JID_3275.chk
%mem=8GB
%nprocshared=4
# B3LYP/6-311++G(d,p) empiricaldispersion=gd3bj scf=xqc pop=npa geom=check

CID_84073367_JID_3275_Energie_anion

-1 2
