%chk=JID_2371.chk
%mem=8GB
%nprocshared=4
# opt freq B3LYP/6-31G(d) empiricaldispersion=gd3bj scf=xqc

CID_126978749_JID_2371_neutraal

0 1
C         -1.21600        1.28400       -0.19900
C         -1.98290       -0.01094        0.07916
C         -1.27981       -1.26696       -0.46955
C          0.17081       -1.31105        0.04473
C          0.94267       -0.02708       -0.26405
C          0.22495        1.20199        0.28957
O          2.24676       -0.10514        0.30779
C         -1.35185       -1.42543       -1.97390
C         -0.70498       -2.33413       -2.79695
C         -1.11590       -2.09728       -4.12867
C         -2.01927       -1.06309       -4.09489
N         -2.16884       -0.67349       -2.79040
H         -1.22323        1.50628       -1.27187
H         -1.72217        2.12031        0.29679
H         -3.00625        0.07233       -0.30445
H         -2.08090       -0.12031        1.16792
H         -1.80375       -2.13970       -0.05458
H          0.71815       -2.17442       -0.35274
H          0.15780       -1.46414        1.13304
H          1.07428        0.08034       -1.34644
H          0.24200        1.17804        1.38711
H          0.77149        2.10973        0.00677
H          2.14917       -0.21469        1.26871
H         -0.00272       -3.09194       -2.47260
H         -0.79112       -2.62826       -5.01395
H         -2.57388       -0.57499       -4.88483
H         -2.78824        0.06536       -2.48602

--Link1--
%chk=JID_2371.chk
%mem=8GB
%nprocshared=4
# B3LYP/6-311++G(d,p) empiricaldispersion=gd3bj scf=xqc pop=npa geom=check

CID_126978749_JID_2371_Energie_neutraal

0 1

--Link1--
%chk=JID_2371.chk
%mem=8GB
%nprocshared=4
# B3LYP/6-311++G(d,p) empiricaldispersion=gd3bj scf=xqc pop=npa geom=check

CID_126978749_JID_2371_Energie_kation

1 2

--Link1--
%chk=JID_2371.chk
%mem=8GB
%nprocshared=4
# B3LYP/6-311++G(d,p) empiricaldispersion=gd3bj scf=xqc pop=npa geom=check

CID_126978749_JID_2371_Energie_anion

-1 2
