%chk=JID_2158.chk
%mem=8GB
%nprocshared=4
# opt freq B3LYP/6-31G(d) empiricaldispersion=gd3bj scf=xqc

CID_16782220_JID_2158_neutraal

0 1
C          1.05531       -0.08324        0.00340
C          0.60465        1.31298       -0.42439
C          0.92159        1.51658       -1.91061
C         -0.89545        1.54739       -0.18131
C         -1.42092        1.41735        1.26374
N         -1.01399        2.38649        2.29587
C         -1.10652        3.77611        1.84322
C         -1.50394        4.77768        2.93051
C         -0.95100        4.54649        4.33224
N          0.45466        4.15712        4.37409
C          0.58830        2.69964        4.26876
C          0.30252        2.07794        2.88228
H          0.48503       -0.86022       -0.51712
H          0.93146       -0.23704        1.07813
H          2.11580       -0.23476       -0.22556
H          1.18528        2.05822        0.12607
H          0.38095        0.79771       -2.53582
H          0.64200        2.52509       -2.23349
H          1.99305        1.39197       -2.10044
H         -1.16953        2.53138       -0.58082
H         -1.45849        0.82666       -0.79114
H         -2.51532        1.49552        1.19673
H         -1.25661        0.39519        1.62677
H         -1.87858        3.87391        1.06848
H         -0.17101        4.09400        1.36417
H         -1.20475        5.77737        2.58909
H         -2.59909        4.80018        3.00693
H         -1.05162        5.48644        4.88855
H         -1.58017        3.82828        4.87355
H          0.96373        4.60429        3.61452
H         -0.03370        2.20886        5.02851
H          1.62266        2.44940        4.53487
H          0.39174        0.99356        3.02327
H          1.11160        2.37156        2.20605

--Link1--
%chk=JID_2158.chk
%mem=8GB
%nprocshared=4
# B3LYP/6-311++G(d,p) empiricaldispersion=gd3bj scf=xqc pop=npa geom=check

CID_16782220_JID_2158_Energie_neutraal

0 1

--Link1--
%chk=JID_2158.chk
%mem=8GB
%nprocshared=4
# B3LYP/6-311++G(d,p) empiricaldispersion=gd3bj scf=xqc pop=npa geom=check

CID_16782220_JID_2158_Energie_kation

1 2

--Link1--
%chk=JID_2158.chk
%mem=8GB
%nprocshared=4
# B3LYP/6-311++G(d,p) empiricaldispersion=gd3bj scf=xqc pop=npa geom=check

CID_16782220_JID_2158_Energie_anion

-1 2
