%chk=JID_10288.chk
%mem=8GB
%nprocshared=4
# opt freq B3LYP/6-31G(d) empiricaldispersion=gd3bj scf=xqc

CID_115985319_JID_10288_neutraal

0 1
C          0.97834       -0.09737        0.00703
N          0.38650        0.00263        1.34025
C         -0.37925        1.24606        1.49228
C         -0.58627        1.70971        2.94716
S          0.91593        2.35756        3.77151
C          1.74091        0.79831        4.17759
C         -0.33994       -1.22245        1.75020
C         -1.22241       -1.84753        0.66216
O         -0.71611       -2.55673       -0.22010
N         -2.56561       -1.67121        0.59371
C         -3.36836       -0.95040        1.42056
N         -3.06672       -0.27354        2.49355
C         -4.20758        0.34641        2.98106
C         -5.37638        0.09890        2.25896
S         -5.00277       -0.94090        0.93819
C         -6.61004        0.66640        2.62129
C         -6.67411        1.47364        3.76314
C         -5.50233        1.77460        4.45681
C         -4.27555        1.20159        4.09660
N         -7.85839        2.15831        4.06310
H          1.67188        0.73436       -0.16223
H          0.22684       -0.07343       -0.78961
H          1.57234       -1.01294       -0.08924
H          0.13368        2.06332        0.96644
H         -1.35169        1.15077        0.99633
H         -1.30300        2.53843        2.93651
H         -1.02085        0.93230        3.57946
H          1.04245        0.09802        4.64334
H          2.18943        0.34765        3.29047
H          2.54452        1.00151        4.89121
H          0.41866       -1.98311        1.98300
H         -0.87197       -1.10104        2.69435
H         -3.01007       -2.13150       -0.18768
H         -7.49446        0.48175        2.01962
H         -5.52707        2.46591        5.29626
H         -3.37647        1.43133        4.65978
H         -8.70278        1.68732        3.75254
H         -7.92608        2.46875        5.02783

--Link1--
%chk=JID_10288.chk
%mem=8GB
%nprocshared=4
# B3LYP/6-311++G(d,p) empiricaldispersion=gd3bj scf=xqc pop=npa geom=check

CID_115985319_JID_10288_Energie_neutraal

0 1

--Link1--
%chk=JID_10288.chk
%mem=8GB
%nprocshared=4
# B3LYP/6-311++G(d,p) empiricaldispersion=gd3bj scf=xqc pop=npa geom=check

CID_115985319_JID_10288_Energie_kation

1 2

--Link1--
%chk=JID_10288.chk
%mem=8GB
%nprocshared=4
# B3LYP/6-311++G(d,p) empiricaldispersion=gd3bj scf=xqc pop=npa geom=check

CID_115985319_JID_10288_Energie_anion

-1 2
