%chk=JID_8085.chk
%mem=8GB
%nprocshared=4
# opt freq B3LYP/6-31G(d) empiricaldispersion=gd3bj scf=xqc

CID_76218546_JID_8085_neutraal

0 1
C          0.90295        0.00683        0.02311
N          0.32238       -1.22157        0.59275
C         -0.84032       -0.87700        1.44504
C         -2.04435       -1.85418        1.27020
C         -3.37050       -1.12998        1.58709
C         -3.49684       -0.84166        3.07832
C         -3.51869       -2.13829        3.88146
C         -2.57297       -3.20208        3.37772
C         -2.41088       -4.36398        4.15034
C         -1.62716       -5.42159        3.69286
C         -1.01281       -5.33946        2.44829
C         -1.17173       -4.19460        1.66771
C         -1.93057       -3.10597        2.12693
C          1.37639       -1.92286        1.38234
C          2.20587       -2.84459        0.45838
N          3.21391       -3.55996        0.87647
O          3.45530       -3.35861        2.23919
N          1.82632       -2.95144       -0.85853
H          1.20053        0.72060        0.80037
H          0.17714        0.49612       -0.63639
H          1.78074       -0.21174       -0.59411
H         -0.54645       -0.78191        2.49896
H         -1.19896        0.11909        1.15177
H         -2.10522       -2.15416        0.21458
H         -4.21676       -1.75169        1.26493
H         -3.43964       -0.19489        1.01886
H         -2.66428       -0.21184        3.41275
H         -4.41298       -0.27338        3.27640
H         -3.29876       -1.91031        4.93127
H         -4.53393       -2.55438        3.84238
H         -2.91011       -4.45349        5.11289
H         -1.50765       -6.31336        4.30192
H         -0.40633       -6.16441        2.08436
H         -0.68322       -4.14810        0.69736
H          2.03930       -1.21776        1.89810
H          0.93700       -2.57142        2.14627
H          4.22436       -3.93674        2.39848
H          0.86917       -2.64258       -1.01462
H          2.08239       -3.82967       -1.28937

--Link1--
%chk=JID_8085.chk
%mem=8GB
%nprocshared=4
# B3LYP/6-311++G(d,p) empiricaldispersion=gd3bj scf=xqc pop=npa geom=check

CID_76218546_JID_8085_Energie_neutraal

0 1

--Link1--
%chk=JID_8085.chk
%mem=8GB
%nprocshared=4
# B3LYP/6-311++G(d,p) empiricaldispersion=gd3bj scf=xqc pop=npa geom=check

CID_76218546_JID_8085_Energie_kation

1 2

--Link1--
%chk=JID_8085.chk
%mem=8GB
%nprocshared=4
# B3LYP/6-311++G(d,p) empiricaldispersion=gd3bj scf=xqc pop=npa geom=check

CID_76218546_JID_8085_Energie_anion

-1 2
