%chk=JID_4336.chk
%mem=8GB
%nprocshared=4
# opt freq B3LYP/6-31G(d) empiricaldispersion=gd3bj scf=xqc

CID_83818532_JID_4336_neutraal

0 1
C          1.05074        0.08613       -0.00269
C          0.53310       -0.58216        1.24401
O         -0.19929        0.00696        2.03404
C          0.97603       -1.97937        1.50488
N          0.02549       -2.83117        1.94279
C          0.41040       -4.11571        2.18708
C          1.71341       -4.59419        1.99318
C          2.66581       -3.67514        1.54551
C          2.29821       -2.35090        1.29886
O          1.96210       -5.92267        2.19238
C          3.31917       -6.34755        2.20678
C         -0.69508       -5.00858        2.63923
O         -1.83106       -5.02995        2.19863
O         -0.34855       -5.78739        3.68503
H          0.28574        0.76856       -0.38485
H          1.25651       -0.64853       -0.78620
H          1.95871        0.64765        0.23053
H          3.69752       -3.96011        1.36472
H          3.04132       -1.63583        0.96136
H          3.76268       -6.26997        1.20895
H          3.90427       -5.78824        2.94450
H          3.33629       -7.40227        2.49748
H         -1.17483       -6.27264        3.88847

--Link1--
%chk=JID_4336.chk
%mem=8GB
%nprocshared=4
# B3LYP/6-311++G(d,p) empiricaldispersion=gd3bj scf=xqc pop=npa geom=check

CID_83818532_JID_4336_Energie_neutraal

0 1

--Link1--
%chk=JID_4336.chk
%mem=8GB
%nprocshared=4
# B3LYP/6-311++G(d,p) empiricaldispersion=gd3bj scf=xqc pop=npa geom=check

CID_83818532_JID_4336_Energie_kation

1 2

--Link1--
%chk=JID_4336.chk
%mem=8GB
%nprocshared=4
# B3LYP/6-311++G(d,p) empiricaldispersion=gd3bj scf=xqc pop=npa geom=check

CID_83818532_JID_4336_Energie_anion

-1 2
