%chk=JID_4966.chk
%mem=8GB
%nprocshared=4
# opt freq B3LYP/6-31G(d) empiricaldispersion=gd3bj scf=xqc

CID_83880165_JID_4966_neutraal

0 1
C          1.04290        0.08648        0.02610
C          0.34683       -1.26820        0.13276
C          0.50927       -1.85485        1.53564
N         -1.05933       -1.19901       -0.25664
C         -1.99641       -0.22515        0.26910
C         -3.31499       -0.58119       -0.43525
C         -3.51502        0.22736       -1.72234
C         -5.02198        0.37789       -1.80958
N         -5.45468        0.57960       -0.42396
C         -4.55538       -0.24421        0.41017
N         -3.11973       -2.01000       -0.70594
C         -1.75413       -2.32295       -0.72465
O         -1.26001       -3.38071       -1.07745
C         -4.09367       -2.86178       -1.35345
H          0.64414        0.80479        0.75035
H          0.91269        0.51226       -0.97464
H          2.11710       -0.01474        0.21370
H          0.83622       -1.95528       -0.56896
H          0.04635       -1.21374        2.29346
H          0.03942       -2.84170        1.60576
H          1.56859       -1.96731        1.78924
H         -2.06437       -0.38440        1.35138
H         -1.65431        0.79401        0.07139
H         -3.06325        1.22371       -1.63664
H         -3.10158       -0.25452       -2.61426
H         -5.49384       -0.52224       -2.21660
H         -5.31247        1.22111       -2.44378
H         -5.32007        1.56205       -0.18046
H         -5.08792       -1.14119        0.74186
H         -4.29780        0.32620        1.30969
H         -5.06555       -2.75977       -0.86692
H         -4.16781       -2.58236       -2.40777
H         -3.77256       -3.90584       -1.29579

--Link1--
%chk=JID_4966.chk
%mem=8GB
%nprocshared=4
# B3LYP/6-311++G(d,p) empiricaldispersion=gd3bj scf=xqc pop=npa geom=check

CID_83880165_JID_4966_Energie_neutraal

0 1

--Link1--
%chk=JID_4966.chk
%mem=8GB
%nprocshared=4
# B3LYP/6-311++G(d,p) empiricaldispersion=gd3bj scf=xqc pop=npa geom=check

CID_83880165_JID_4966_Energie_kation

1 2

--Link1--
%chk=JID_4966.chk
%mem=8GB
%nprocshared=4
# B3LYP/6-311++G(d,p) empiricaldispersion=gd3bj scf=xqc pop=npa geom=check

CID_83880165_JID_4966_Energie_anion

-1 2
