%chk=JID_7696.chk
%mem=8GB
%nprocshared=4
# opt freq B3LYP/6-31G(d) empiricaldispersion=gd3bj scf=xqc

CID_106961680_JID_7696_neutraal

0 1
C          1.06326        0.05155       -0.05780
C          0.57083       -0.34145        1.34406
C          0.58294        0.89286        2.26178
C         -0.88821       -0.82747        1.22188
N          1.31071       -1.47769        1.92252
C          2.78094       -1.44703        1.87884
C          3.42615       -0.50408        2.83104
N          4.33546        0.42172        2.61082
N          4.55265        1.03978        3.82565
C          3.76447        0.44839        4.69535
O          3.02310       -0.55426        4.14118
N          3.54522        0.68036        6.00217
C          3.83658        2.01688        6.49836
C          3.73424        2.05045        8.02269
C          4.78869        1.22186        8.75797
S          6.45714        1.95416        8.67586
C          7.20100        0.86499        7.43417
H          0.39389        0.78953       -0.51556
H          1.09842       -0.81665       -0.72599
H          2.06185        0.50081       -0.03010
H         -0.12602        1.65022        1.90647
H          0.29449        0.63389        3.28709
H          1.56541        1.37248        2.29482
H         -0.96393       -1.70633        0.57018
H         -1.30545       -1.09867        2.19928
H         -1.53148       -0.04803        0.79671
H          1.01560       -1.62879        2.88763
H          3.12746       -2.45502        2.13834
H          3.14659       -1.27385        0.86191
H          2.68963        0.26908        6.35879
H          4.82362        2.36084        6.17113
H          3.09963        2.71672        6.08458
H          3.77921        3.09291        8.36246
H          2.74426        1.67728        8.31662
H          4.51989        1.19231        9.81972
H          4.80362        0.18403        8.41037
H          7.19209       -0.17051        7.78408
H          6.67337        0.93670        6.48124
H          8.24011        1.16596        7.27571

--Link1--
%chk=JID_7696.chk
%mem=8GB
%nprocshared=4
# B3LYP/6-311++G(d,p) empiricaldispersion=gd3bj scf=xqc pop=npa geom=check

CID_106961680_JID_7696_Energie_neutraal

0 1

--Link1--
%chk=JID_7696.chk
%mem=8GB
%nprocshared=4
# B3LYP/6-311++G(d,p) empiricaldispersion=gd3bj scf=xqc pop=npa geom=check

CID_106961680_JID_7696_Energie_kation

1 2

--Link1--
%chk=JID_7696.chk
%mem=8GB
%nprocshared=4
# B3LYP/6-311++G(d,p) empiricaldispersion=gd3bj scf=xqc pop=npa geom=check

CID_106961680_JID_7696_Energie_anion

-1 2
