%chk=JID_7158.chk
%mem=8GB
%nprocshared=4
# opt freq B3LYP/6-31G(d) empiricaldispersion=gd3bj scf=xqc

CID_79865850_JID_7158_neutraal

0 1
C          0.97533        0.09678        0.00499
C          0.42284        0.61718       -1.31861
C         -1.06352        0.99289       -1.20929
C         -1.22068        2.22539       -2.09515
C          0.04450        3.06317       -1.84364
C          1.06110        1.95352       -1.67625
O          2.26632        2.09770       -1.84980
C         -0.11741        3.94555       -0.59218
N          0.93508        4.91544       -0.23946
C          2.06889        4.29967        0.45363
C          2.87460        5.23017        1.37144
C          2.04612        6.26914        2.13088
C          2.08776        7.66912        1.51218
C          1.37957        7.84517        0.16638
C          2.02043        7.08245       -0.99637
C          1.30435        5.77713       -1.36371
C          0.67047       -0.38244       -2.44969
H          0.45509       -0.81485        0.31777
H          0.86676        0.84044        0.80276
H          2.04397       -0.13267       -0.07477
H         -1.72851        0.18327       -1.52852
H         -1.33537        1.24429       -0.17684
H         -2.14489        2.76992       -1.87739
H         -1.26045        1.91965       -3.14843
H          0.26632        3.65080       -2.73924
H         -1.03604        4.53403       -0.72605
H         -0.32763        3.32262        0.28686
H          1.69547        3.49503        1.10117
H          2.76225        3.82773       -0.24851
H          3.69167        5.70664        0.82064
H          3.37153        4.58862        2.11223
H          2.47165        6.35765        3.13932
H          1.01076        5.93831        2.27148
H          3.13157        7.99500        1.41885
H          1.62018        8.36091        2.22475
H          1.42519        8.91543       -0.07521
H          0.31433        7.60447        0.26163
H          3.08719        6.91286       -0.82323
H          1.97658        7.72558       -1.88594
H          1.91458        5.23206       -2.09475
H          0.38634        6.07338       -1.88987
H          1.73919       -0.60161       -2.55544
H          0.15054       -1.32785       -2.26072
H          0.32642        0.00569       -3.41492

--Link1--
%chk=JID_7158.chk
%mem=8GB
%nprocshared=4
# B3LYP/6-311++G(d,p) empiricaldispersion=gd3bj scf=xqc pop=npa geom=check

CID_79865850_JID_7158_Energie_neutraal

0 1

--Link1--
%chk=JID_7158.chk
%mem=8GB
%nprocshared=4
# B3LYP/6-311++G(d,p) empiricaldispersion=gd3bj scf=xqc pop=npa geom=check

CID_79865850_JID_7158_Energie_kation

1 2

--Link1--
%chk=JID_7158.chk
%mem=8GB
%nprocshared=4
# B3LYP/6-311++G(d,p) empiricaldispersion=gd3bj scf=xqc pop=npa geom=check

CID_79865850_JID_7158_Energie_anion

-1 2
