%chk=JID_3314.chk
%mem=8GB
%nprocshared=4
# opt freq B3LYP/6-31G(d) empiricaldispersion=gd3bj scf=xqc

CID_90288071_JID_3314_neutraal

0 1
C          1.07945        0.03094       -0.05226
C          1.12175       -0.44920        1.39322
C          1.51479        0.66027        2.36803
C          0.60445        1.27317        3.16732
C          1.10028        2.19525        4.22587
N          0.64090        3.31888        4.65062
C         -0.54941        3.88705        4.03997
C         -0.83458        0.93832        3.12648
O         -1.46534        0.51128        4.08064
O         -1.34141        1.23258        1.90097
C         -2.74664        0.98629        1.77499
C         -3.16657        1.36572        0.36857
N          2.88215        0.93696        2.38018
H          0.36409        0.84890       -0.18268
H          0.77750       -0.78959       -0.71115
H          2.06083        0.38294       -0.38643
H          0.15772       -0.89946        1.65312
H          1.84857       -1.26799        1.47720
H          2.03220        1.85316        4.71131
H         -0.52704        3.83099        2.94690
H         -1.45497        3.40612        4.42158
H         -0.60860        4.94844        4.30154
H         -2.95258       -0.07567        1.94946
H         -3.29597        1.59454        2.50232
H         -2.60860        0.78182       -0.37095
H         -4.23638        1.19401        0.22086
H         -2.94705        2.42050        0.17253
H          3.37276        0.65501        1.53268
H          3.12570        1.88943        2.65015

--Link1--
%chk=JID_3314.chk
%mem=8GB
%nprocshared=4
# B3LYP/6-311++G(d,p) empiricaldispersion=gd3bj scf=xqc pop=npa geom=check

CID_90288071_JID_3314_Energie_neutraal

0 1

--Link1--
%chk=JID_3314.chk
%mem=8GB
%nprocshared=4
# B3LYP/6-311++G(d,p) empiricaldispersion=gd3bj scf=xqc pop=npa geom=check

CID_90288071_JID_3314_Energie_kation

1 2

--Link1--
%chk=JID_3314.chk
%mem=8GB
%nprocshared=4
# B3LYP/6-311++G(d,p) empiricaldispersion=gd3bj scf=xqc pop=npa geom=check

CID_90288071_JID_3314_Energie_anion

-1 2
