%chk=JID_6873.chk
%mem=8GB
%nprocshared=4
# opt freq B3LYP/6-31G(d) empiricaldispersion=gd3bj scf=xqc

CID_83890204_JID_6873_neutraal

0 1
C          0.91139       -0.04606       -0.00518
C          1.06000       -0.84900       -1.29448
N          1.34137       -2.26590       -1.03965
C          2.62854       -2.54327       -0.58876
O          3.52137       -1.70266       -0.48623
C          2.90675       -3.94498       -0.23437
C          1.94475       -4.84428       -0.46502
C          2.18861       -6.29919       -0.14613
C          3.67616       -6.61088        0.07461
N          4.30521       -5.62384        0.95547
C          4.23806       -4.27727        0.36245
N          0.72977       -4.54172       -1.01036
C          0.45801       -3.30293       -1.28622
C         -0.93295       -3.01460       -1.88156
C         -1.52341       -4.24478       -2.58149
C         -1.89190       -2.54513       -0.78962
H          0.13692       -0.46830        0.64147
H          0.64102        0.98923       -0.23554
H          1.84240       -0.02707        0.56943
H          0.15894       -0.71465       -1.89178
H          1.88638       -0.43162       -1.88283
H          1.81594       -6.92975       -0.96236
H          1.61823       -6.55919        0.75459
H          4.20481       -6.64603       -0.88669
H          3.76983       -7.60552        0.52443
H          5.28301       -5.86810        1.10623
H          4.48318       -3.56071        1.15438
H          5.00991       -4.18584       -0.41183
H         -0.84399       -2.24291       -2.65111
H         -1.72797       -5.05679       -1.87483
H         -2.46543       -3.99025       -3.07916
H         -0.83486       -4.62720       -3.34296
H         -1.56254       -1.60781       -0.33704
H         -2.89517       -2.37842       -1.19601
H         -1.96895       -3.28636        0.01371

--Link1--
%chk=JID_6873.chk
%mem=8GB
%nprocshared=4
# B3LYP/6-311++G(d,p) empiricaldispersion=gd3bj scf=xqc pop=npa geom=check

CID_83890204_JID_6873_Energie_neutraal

0 1

--Link1--
%chk=JID_6873.chk
%mem=8GB
%nprocshared=4
# B3LYP/6-311++G(d,p) empiricaldispersion=gd3bj scf=xqc pop=npa geom=check

CID_83890204_JID_6873_Energie_kation

1 2

--Link1--
%chk=JID_6873.chk
%mem=8GB
%nprocshared=4
# B3LYP/6-311++G(d,p) empiricaldispersion=gd3bj scf=xqc pop=npa geom=check

CID_83890204_JID_6873_Energie_anion

-1 2
