%chk=JID_10539.chk
%mem=8GB
%nprocshared=4
# opt freq B3LYP/6-31G(d) empiricaldispersion=gd3bj scf=xqc

CID_114764812_JID_10539_neutraal

0 1
C          0.93345       -0.02417        0.07062
O          1.00832        1.23813       -0.59762
C          1.79020        2.10399        0.13564
C          1.20172        2.82662        1.17566
C          1.96911        3.73842        1.89430
C          3.31266        3.92195        1.56776
C          3.89204        3.19905        0.52101
C          3.13886        2.28462       -0.22450
N          3.54907        1.63709       -1.43715
S          5.08998        1.21008       -1.84726
O          5.91056        1.17901       -0.65223
O          4.96341        0.03344       -2.68171
C          5.64402        2.56176       -2.89273
C          4.71706        2.86149       -4.08531
C          3.69883        3.97900       -3.78618
C          4.33073        5.36759       -3.68168
C          5.17543        5.70209       -4.90629
C          6.20055        4.61324       -5.20440
C          5.53688        3.24365       -5.33208
O          5.21706        3.44894        0.30196
H          1.92899       -0.46116        0.20711
H          0.34992       -0.70125       -0.56027
H          0.42064        0.06723        1.03418
H          0.15015        2.69147        1.41165
H          1.52328        4.31133        2.70347
H          3.91442        4.63358        2.12823
H          2.83045        1.05212       -1.86995
H          5.80108        3.43100       -2.25102
H          6.63089        2.23430       -3.24167
H          4.15369        1.95453       -4.33744
H          2.95645        3.99712       -4.59516
H          3.14103        3.77017       -2.86970
H          4.95060        5.43241       -2.78034
H          3.54062        6.11896       -3.56826
H          5.68634        6.65921       -4.75232
H          4.51820        5.82885       -5.77549
H          6.95602        4.59070       -4.41009
H          6.72718        4.85257       -6.13524
H          6.29839        2.48117       -5.53456
H          4.87119        3.25296       -6.20514
H          5.65478        2.56939        0.23652

--Link1--
%chk=JID_10539.chk
%mem=8GB
%nprocshared=4
# B3LYP/6-311++G(d,p) empiricaldispersion=gd3bj scf=xqc pop=npa geom=check

CID_114764812_JID_10539_Energie_neutraal

0 1

--Link1--
%chk=JID_10539.chk
%mem=8GB
%nprocshared=4
# B3LYP/6-311++G(d,p) empiricaldispersion=gd3bj scf=xqc pop=npa geom=check

CID_114764812_JID_10539_Energie_kation

1 2

--Link1--
%chk=JID_10539.chk
%mem=8GB
%nprocshared=4
# B3LYP/6-311++G(d,p) empiricaldispersion=gd3bj scf=xqc pop=npa geom=check

CID_114764812_JID_10539_Energie_anion

-1 2
