%chk=JID_7868.chk
%mem=8GB
%nprocshared=4
# opt freq B3LYP/6-31G(d) empiricaldispersion=gd3bj scf=xqc

CID_43458127_JID_7868_neutraal

0 1
C          0.91855        0.03229        0.04820
N          0.60747        0.39687       -1.33031
C         -0.40664       -0.42741       -1.98039
C         -1.81710        0.12349       -1.91818
C         -2.84240       -0.58353       -2.56454
C         -4.14859       -0.08254       -2.59911
C         -4.47494        1.10905       -1.95138
C         -3.45107        1.83531       -1.34313
C         -2.14271        1.33974       -1.30256
N         -5.74201        1.67888       -2.11664
C          1.42837        1.34863       -1.94905
O          2.39525        1.80927       -1.33719
C          1.19417        1.82645       -3.31517
C          0.09085        1.75672       -4.14296
O          0.31650        2.37463       -5.33344
C          1.56673        2.88888       -5.28130
C          2.14465        2.59320       -4.07282
H          1.47968       -0.90701        0.04057
H         -0.01274       -0.10253        0.60662
H          1.51326        0.79726        0.55423
H         -0.11690       -0.59589       -3.02206
H         -0.39982       -1.41377       -1.49819
H         -2.62678       -1.51826       -3.07848
H         -4.90950       -0.62982       -3.14951
H         -3.65848        2.80624       -0.90031
H         -1.38073        1.94145       -0.81245
H         -5.98510        2.35547       -1.40001
H         -6.48137        1.00222       -2.27553
H         -0.90220        1.34406       -4.06228
H          1.88895        3.43531       -6.15662
H          3.13182        2.89305       -3.74693

--Link1--
%chk=JID_7868.chk
%mem=8GB
%nprocshared=4
# B3LYP/6-311++G(d,p) empiricaldispersion=gd3bj scf=xqc pop=npa geom=check

CID_43458127_JID_7868_Energie_neutraal

0 1

--Link1--
%chk=JID_7868.chk
%mem=8GB
%nprocshared=4
# B3LYP/6-311++G(d,p) empiricaldispersion=gd3bj scf=xqc pop=npa geom=check

CID_43458127_JID_7868_Energie_kation

1 2

--Link1--
%chk=JID_7868.chk
%mem=8GB
%nprocshared=4
# B3LYP/6-311++G(d,p) empiricaldispersion=gd3bj scf=xqc pop=npa geom=check

CID_43458127_JID_7868_Energie_anion

-1 2
