%chk=JID_10816.chk
%mem=8GB
%nprocshared=4
# opt freq B3LYP/6-31G(d) empiricaldispersion=gd3bj scf=xqc

CID_130598735_JID_10816_neutraal

0 1
C          0.93024       -0.01035       -0.07089
C          0.69842        0.56991        1.27686
N          0.17017       -0.08172        2.29142
C          0.13761        0.80781        3.33833
C          0.71051        2.01671        2.97519
N          0.99887        1.87194        1.63210
C          1.54724        2.88526        0.74252
C          0.47256        3.64543        0.00134
C          0.33272        3.51175       -1.38817
C         -0.65532        4.22102       -2.07510
C         -1.51138        5.07583       -1.38428
C         -1.38168        5.22215       -0.00588
C         -0.39616        4.51270        0.68240
N          0.97301        3.14950        3.67848
C         -0.45596        0.42473        4.62143
C         -1.10404        1.23436        5.53190
N         -1.50721        0.39215        6.52801
C         -1.08462       -0.86512        6.21184
N         -0.44503       -0.88030        5.06449
C         -2.26929        0.76277        7.69185
H          0.31688        0.49404       -0.82245
H          0.66199       -1.07177       -0.07888
H          1.98325        0.06875       -0.35648
H          2.16316        3.57821        1.32491
H          2.23281        2.38745        0.04779
H          0.98817        2.85023       -1.95014
H         -0.76004        4.10415       -3.15075
H         -2.28253        5.62430       -1.91870
H         -2.05180        5.88365        0.53717
H         -0.32113        4.63569        1.76091
H          0.94161        3.07740        4.69488
H          1.69860        3.79394        3.38069
H         -1.33158        2.29034        5.52478
H         -1.27004       -1.72876        6.83683
H         -2.73330       -0.12803        8.12281
H         -1.58971        1.22191        8.41386
H         -3.04562        1.47266        7.39428

--Link1--
%chk=JID_10816.chk
%mem=8GB
%nprocshared=4
# B3LYP/6-311++G(d,p) empiricaldispersion=gd3bj scf=xqc pop=npa geom=check

CID_130598735_JID_10816_Energie_neutraal

0 1

--Link1--
%chk=JID_10816.chk
%mem=8GB
%nprocshared=4
# B3LYP/6-311++G(d,p) empiricaldispersion=gd3bj scf=xqc pop=npa geom=check

CID_130598735_JID_10816_Energie_kation

1 2

--Link1--
%chk=JID_10816.chk
%mem=8GB
%nprocshared=4
# B3LYP/6-311++G(d,p) empiricaldispersion=gd3bj scf=xqc pop=npa geom=check

CID_130598735_JID_10816_Energie_anion

-1 2
