%chk=JID_6954.chk
%mem=8GB
%nprocshared=4
# opt freq B3LYP/6-31G(d) empiricaldispersion=gd3bj scf=xqc

CID_105479825_JID_6954_neutraal

0 1
C          1.05713       -0.08151        0.00960
C          0.69357        1.16020        0.74870
C         -0.05734        1.25935        1.92074
C         -0.10328        2.65258        2.19907
N          0.56055        3.35975        1.28568
N          1.05947        2.45390        0.41999
C          1.86289        2.96682       -0.66357
C          3.14685        2.19002       -0.98897
N          2.74015        2.09100       -2.40599
C          1.38054        2.55924       -2.06571
C          3.43790        3.09884       -3.20669
C         -0.77605        3.37823        3.30672
C         -0.67032        0.11101        2.69792
C          0.04214       -0.10001        4.03809
C         -2.19581        0.24422        2.90877
N         -2.94236        0.28049        1.64965
H          1.34757        0.07759       -1.02651
H          0.20605       -0.77020       -0.01996
H          1.88213       -0.58912        0.52016
H          2.02621        4.05133       -0.58975
H          4.07013        2.75094       -0.79334
H          3.28120        1.21595       -0.50962
H          0.62173        1.77156       -2.12005
H          0.99485        3.39230       -2.66780
H          3.39062        4.10895       -2.78204
H          4.49303        2.82426       -3.31287
H          3.01064        3.13409       -4.21477
H         -1.85043        3.45340        3.11243
H         -0.62843        2.87263        4.26377
H         -0.38335        4.39552        3.41237
H         -0.51216       -0.81283        2.12597
H         -0.11877        0.73521        4.72568
H         -0.32376       -1.00810        4.52960
H          1.12279       -0.21061        3.89434
H         -2.55843       -0.61201        3.48922
H         -2.43288        1.14126        3.48933
H         -3.91794        0.50562        1.83811
H         -2.58204        1.03643        1.06476

--Link1--
%chk=JID_6954.chk
%mem=8GB
%nprocshared=4
# B3LYP/6-311++G(d,p) empiricaldispersion=gd3bj scf=xqc pop=npa geom=check

CID_105479825_JID_6954_Energie_neutraal

0 1

--Link1--
%chk=JID_6954.chk
%mem=8GB
%nprocshared=4
# B3LYP/6-311++G(d,p) empiricaldispersion=gd3bj scf=xqc pop=npa geom=check

CID_105479825_JID_6954_Energie_kation

1 2

--Link1--
%chk=JID_6954.chk
%mem=8GB
%nprocshared=4
# B3LYP/6-311++G(d,p) empiricaldispersion=gd3bj scf=xqc pop=npa geom=check

CID_105479825_JID_6954_Energie_anion

-1 2
