%chk=JID_8106.chk
%mem=8GB
%nprocshared=4
# opt freq B3LYP/6-31G(d) empiricaldispersion=gd3bj scf=xqc

CID_123568150_JID_8106_neutraal

0 1
C          2.50100       -0.11500        0.00200
C          1.01231        0.06077        0.03011
C          0.18970       -1.05844        0.00399
N         -1.16088       -1.01939        0.04113
C         -1.75388        0.18127        0.11421
C         -1.02059        1.35908        0.13743
C          0.38008        1.31126        0.07138
C          1.10267        2.57786        0.05847
N          0.82565        3.69846        0.69593
C          1.79970        4.57646        0.27473
C          2.61142        3.95279       -0.64881
O          2.17307        2.66658       -0.79010
C          3.77384        4.36022       -1.45608
C          1.85977        5.95239        0.80843
N         -3.14491        0.29258        0.16017
C         -4.09848       -0.67886        0.13236
O         -5.28361       -0.33603        0.18295
C         -3.72346       -2.13203        0.03871
H          2.78330       -1.14331        0.25374
H          2.89139        0.10544       -0.99628
H          2.98633        0.53311        0.73888
H          0.60508       -2.06273       -0.04396
H         -1.52060        2.32278        0.19059
H          3.60079        5.33910       -1.91398
H          4.66924        4.42496       -0.83111
H          3.96857        3.64394       -2.26054
H          0.86292        6.40343        0.81924
H          2.24414        5.94156        1.83313
H          2.51388        6.58869        0.20467
H         -3.54026        1.22047        0.22071
H         -3.18134       -2.32776       -0.88969
H         -3.13793       -2.43245        0.91099
H         -4.63636       -2.73628        0.02523

--Link1--
%chk=JID_8106.chk
%mem=8GB
%nprocshared=4
# B3LYP/6-311++G(d,p) empiricaldispersion=gd3bj scf=xqc pop=npa geom=check

CID_123568150_JID_8106_Energie_neutraal

0 1

--Link1--
%chk=JID_8106.chk
%mem=8GB
%nprocshared=4
# B3LYP/6-311++G(d,p) empiricaldispersion=gd3bj scf=xqc pop=npa geom=check

CID_123568150_JID_8106_Energie_kation

1 2

--Link1--
%chk=JID_8106.chk
%mem=8GB
%nprocshared=4
# B3LYP/6-311++G(d,p) empiricaldispersion=gd3bj scf=xqc pop=npa geom=check

CID_123568150_JID_8106_Energie_anion

-1 2
