%chk=JID_8886.chk
%mem=8GB
%nprocshared=4
# opt freq B3LYP/6-31G(d) empiricaldispersion=gd3bj scf=xqc

CID_79840959_JID_8886_neutraal

0 1
C          2.00100        0.05100        0.78000
C          0.60811        0.01059        0.13964
C         -0.43038       -0.64191        1.06655
C         -1.78624       -0.08326        0.62755
C         -1.50056        1.13639       -0.25304
C          0.00027        1.41203       -0.11010
N          0.22595        2.33810        0.99569
C          0.31246        3.69991        0.95758
O          0.37322        4.31954        2.02152
C          0.36732        4.41332       -0.38214
C          1.74853        4.42911       -0.99608
C          2.85328        4.88592       -0.25939
C          4.11853        4.90234       -0.84049
C          4.30633        4.48223       -2.15121
C          3.21448        4.04293       -2.89756
C          1.94065        4.02106       -2.32535
O          5.21086        5.33161       -0.14549
C          0.71392       -0.77717       -1.18297
H          1.98918        0.52466        1.76717
H          2.39850       -0.96113        0.91673
H          2.70478        0.60707        0.15060
H         -0.41251       -1.73621        1.02170
H         -0.25092       -0.36201        2.11222
H         -2.38691        0.19192        1.50129
H         -2.35518       -0.83162        0.06483
H         -2.12501        1.99113        0.02831
H         -1.74010        0.89294       -1.29509
H          0.39698        1.85270       -1.02733
H          0.15401        1.98267        1.94217
H         -0.36886        3.96749       -1.05990
H          0.03826        5.44910       -0.23002
H          2.71672        5.22419        0.76525
H          5.29907        4.50250       -2.59109
H          3.35592        3.72111       -3.92617
H          1.10057        3.68100       -2.92708
H          4.92726        5.58170        0.74987
H          1.10630       -1.78535       -1.00691
H         -0.25361       -0.89061       -1.68212
H          1.39052       -0.27376       -1.88282

--Link1--
%chk=JID_8886.chk
%mem=8GB
%nprocshared=4
# B3LYP/6-311++G(d,p) empiricaldispersion=gd3bj scf=xqc pop=npa geom=check

CID_79840959_JID_8886_Energie_neutraal

0 1

--Link1--
%chk=JID_8886.chk
%mem=8GB
%nprocshared=4
# B3LYP/6-311++G(d,p) empiricaldispersion=gd3bj scf=xqc pop=npa geom=check

CID_79840959_JID_8886_Energie_kation

1 2

--Link1--
%chk=JID_8886.chk
%mem=8GB
%nprocshared=4
# B3LYP/6-311++G(d,p) empiricaldispersion=gd3bj scf=xqc pop=npa geom=check

CID_79840959_JID_8886_Energie_anion

-1 2
