%chk=JID_3313.chk
%mem=8GB
%nprocshared=4
# opt freq B3LYP/6-31G(d) empiricaldispersion=gd3bj scf=xqc

CID_77110255_JID_3313_neutraal

0 1
C          1.05309       -0.02944        0.07946
N          0.64319       -1.42031        0.13429
C         -0.79453       -1.64648        0.20998
C         -1.62203       -1.14863       -0.94017
C         -2.54340       -1.88767       -1.58200
C         -3.38972       -1.38588       -2.70495
N         -3.15567       -2.20090       -3.88654
C          1.40902       -2.34501       -0.69744
C          1.26867       -2.13888       -2.18020
C          1.93478       -1.17895       -2.92325
S          1.58405       -1.25921       -4.59447
C          0.57232       -2.61495       -4.37001
C          0.48649       -2.97900       -3.04474
H          0.59308        0.53968        0.89528
H          0.78619        0.46027       -0.86195
H          2.13658        0.06193        0.21543
H         -0.98469       -2.71337        0.38544
H         -1.16707       -1.14685        1.11417
H         -1.47334       -0.11474       -1.23869
H         -2.71292       -2.91947       -1.28183
H         -4.44417       -1.45575       -2.41843
H         -3.17799       -0.33575       -2.93407
H         -3.72274       -1.83934       -4.65113
H         -2.18644       -2.06310       -4.17323
H          2.47213       -2.26680       -0.43269
H          1.13567       -3.37761       -0.44359
H          2.61763       -0.42330       -2.56026
H          0.08655       -3.08186       -5.21582
H         -0.11360       -3.81446       -2.70284

--Link1--
%chk=JID_3313.chk
%mem=8GB
%nprocshared=4
# B3LYP/6-311++G(d,p) empiricaldispersion=gd3bj scf=xqc pop=npa geom=check

CID_77110255_JID_3313_Energie_neutraal

0 1

--Link1--
%chk=JID_3313.chk
%mem=8GB
%nprocshared=4
# B3LYP/6-311++G(d,p) empiricaldispersion=gd3bj scf=xqc pop=npa geom=check

CID_77110255_JID_3313_Energie_kation

1 2

--Link1--
%chk=JID_3313.chk
%mem=8GB
%nprocshared=4
# B3LYP/6-311++G(d,p) empiricaldispersion=gd3bj scf=xqc pop=npa geom=check

CID_77110255_JID_3313_Energie_anion

-1 2
