%chk=JID_6616.chk
%mem=8GB
%nprocshared=4
# opt freq B3LYP/6-31G(d) empiricaldispersion=gd3bj scf=xqc

CID_82286538_JID_6616_neutraal

0 1
C          1.05993        0.07798       -0.01810
O          2.11991       -0.76063       -0.47157
C          2.20769       -0.80945       -1.83889
C          1.10880       -1.20415       -2.61112
C          1.21577       -1.27338       -3.99886
C          2.42301       -0.96177       -4.61579
C          3.52755       -0.59218       -3.84490
C          3.44397       -0.52052       -2.44273
C          4.67969       -0.11157       -1.66155
C          5.12767       -1.12486       -0.59045
C          5.05761       -0.38668        0.74422
C          5.28498        1.07860        0.37503
C          4.52475        1.24272       -0.94222
C          4.81860        2.04069        1.48725
N          4.99986        3.44417        1.11056
O          6.68399        1.28805        0.12358
H          0.10879       -0.46319       -0.03100
H          0.98495        1.00167       -0.60339
H          1.27417        0.35404        1.01887
H          0.16960       -1.47616       -2.13982
H          0.36049       -1.57683       -4.59647
H          2.51073       -1.01359       -5.69800
H          4.46261       -0.36006       -4.35076
H          5.51566       -0.01633       -2.36896
H          6.16817       -1.41502       -0.78546
H          4.54257       -2.05004       -0.57245
H          5.81283       -0.77129        1.43758
H          4.07246       -0.53015        1.20076
H          3.47466        1.48782       -0.75443
H          4.94019        2.04588       -1.56245
H          3.76466        1.87184        1.73334
H          5.40872        1.85485        2.39228
H          5.01428        4.02893        1.94328
H          5.91189        3.54126        0.65862
H          7.16082        1.09463        0.94857

--Link1--
%chk=JID_6616.chk
%mem=8GB
%nprocshared=4
# B3LYP/6-311++G(d,p) empiricaldispersion=gd3bj scf=xqc pop=npa geom=check

CID_82286538_JID_6616_Energie_neutraal

0 1

--Link1--
%chk=JID_6616.chk
%mem=8GB
%nprocshared=4
# B3LYP/6-311++G(d,p) empiricaldispersion=gd3bj scf=xqc pop=npa geom=check

CID_82286538_JID_6616_Energie_kation

1 2

--Link1--
%chk=JID_6616.chk
%mem=8GB
%nprocshared=4
# B3LYP/6-311++G(d,p) empiricaldispersion=gd3bj scf=xqc pop=npa geom=check

CID_82286538_JID_6616_Energie_anion

-1 2
