%chk=JID_2687.chk
%mem=8GB
%nprocshared=4
# opt freq B3LYP/6-31G(d) empiricaldispersion=gd3bj scf=xqc

CID_116655505_JID_2687_neutraal

0 1
C          1.06426       -0.05511        0.05323
C          1.04872        1.39208        0.51852
C          1.20737        2.40286       -0.61947
C          0.12903        2.35648       -1.70824
C         -1.32618        2.51264       -1.22245
C         -1.55263        3.81054       -0.45030
N         -2.23846        2.48395       -2.37257
C         -2.52126        1.36318       -3.09596
O         -2.49271        1.44146       -4.32287
N         -2.80070        0.20173       -2.41303
C         -3.59063        0.19889       -1.19112
C         -2.83724       -1.02776       -3.18304
H          0.19435       -0.28566       -0.56901
H          1.04184       -0.72770        0.91667
H          1.96928       -0.27312       -0.52250
H          0.12730        1.58612        1.07785
H          1.87462        1.53864        1.22522
H          1.24726        3.41093       -0.19009
H          2.18221        2.24442       -1.09830
H          0.35019        3.14721       -2.43798
H          0.22561        1.41478       -2.26362
H         -1.55953        1.67127       -0.56647
H         -1.28166        4.68357       -1.05420
H         -2.60815        3.91571       -0.17508
H         -0.96798        3.83768        0.47378
H         -2.10155        3.25039       -3.02043
H         -3.71890        1.19764       -0.76893
H         -4.58871       -0.18970       -1.41913
H         -3.10551       -0.45581       -0.46180
H         -2.08930       -1.00534       -3.98170
H         -2.62543       -1.87436       -2.52366
H         -3.82999       -1.14128       -3.62935

--Link1--
%chk=JID_2687.chk
%mem=8GB
%nprocshared=4
# B3LYP/6-311++G(d,p) empiricaldispersion=gd3bj scf=xqc pop=npa geom=check

CID_116655505_JID_2687_Energie_neutraal

0 1

--Link1--
%chk=JID_2687.chk
%mem=8GB
%nprocshared=4
# B3LYP/6-311++G(d,p) empiricaldispersion=gd3bj scf=xqc pop=npa geom=check

CID_116655505_JID_2687_Energie_kation

1 2

--Link1--
%chk=JID_2687.chk
%mem=8GB
%nprocshared=4
# B3LYP/6-311++G(d,p) empiricaldispersion=gd3bj scf=xqc pop=npa geom=check

CID_116655505_JID_2687_Energie_anion

-1 2
