%chk=JID_6991.chk
%mem=8GB
%nprocshared=4
# opt freq B3LYP/6-31G(d) empiricaldispersion=gd3bj scf=xqc

CID_117312198_JID_6991_neutraal

0 1
C         -0.78000        1.93900       -0.04000
N         -0.07231        0.68412        0.03776
C         -0.62187       -0.57229        0.12073
C          0.44414       -1.43616        0.14388
C          1.60166       -0.61810        0.08277
N          1.27648        0.68203        0.00904
C          2.98425       -1.06779        0.04705
C          3.79883       -1.04598        1.18901
C          5.11519       -1.51928        1.12344
C          5.63274       -1.98792       -0.08566
C          4.82479       -1.99365       -1.21845
C          3.51048       -1.54128       -1.16267
O          5.28843       -2.45183       -2.41635
O          3.27066       -0.64524        2.39063
C          3.95987        0.48836        2.91552
N         -1.94820       -0.81936        0.15590
H         -1.42006        1.92123       -0.92553
H         -1.37778        2.05466        0.86742
H         -0.06301        2.76055       -0.11791
H          0.40936       -2.51431        0.19681
H          5.73443       -1.54386        2.01509
H          6.65484       -2.35126       -0.12029
H          2.89818       -1.55489       -2.06066
H          6.21539       -2.72100       -2.31044
H          4.86324        0.17164        3.44693
H          4.21020        1.21909        2.13760
H          3.29977        0.97732        3.63819
H         -2.28472       -1.75690        0.36285
H         -2.63731       -0.09603        0.33512

--Link1--
%chk=JID_6991.chk
%mem=8GB
%nprocshared=4
# B3LYP/6-311++G(d,p) empiricaldispersion=gd3bj scf=xqc pop=npa geom=check

CID_117312198_JID_6991_Energie_neutraal

0 1

--Link1--
%chk=JID_6991.chk
%mem=8GB
%nprocshared=4
# B3LYP/6-311++G(d,p) empiricaldispersion=gd3bj scf=xqc pop=npa geom=check

CID_117312198_JID_6991_Energie_kation

1 2

--Link1--
%chk=JID_6991.chk
%mem=8GB
%nprocshared=4
# B3LYP/6-311++G(d,p) empiricaldispersion=gd3bj scf=xqc pop=npa geom=check

CID_117312198_JID_6991_Energie_anion

-1 2
