%chk=JID_8198.chk
%mem=8GB
%nprocshared=4
# opt freq B3LYP/6-31G(d) empiricaldispersion=gd3bj scf=xqc

CID_46285535_JID_8198_neutraal

0 1
C          2.54100        1.06400        0.00800
C          1.18997        0.44693        0.21943
C          0.17377        1.16487        0.86213
C         -1.10407        0.60877        1.06308
C         -1.38548       -0.67025        0.54326
C         -0.35612       -1.38955       -0.08276
C          0.91195       -0.83356       -0.25982
N         -2.60640       -1.35194        0.76797
C         -3.82269       -0.87911        0.39162
N         -4.88865       -1.04924        1.14143
C         -5.98552       -0.49681        0.54155
C         -5.78201        0.11535       -0.67645
S         -4.12513       -0.08022       -1.10545
C         -6.65848        0.84789       -1.56935
O         -6.37390        1.11429       -2.73986
C         -7.99520        1.30078       -1.03293
N         -7.13824       -0.63647        1.21746
C         -2.12631        1.42344        1.80857
H          2.55653        1.61531       -0.93715
H          2.78820        1.75152        0.82372
H          3.32181        0.29657       -0.01696
H          0.38496        2.16823        1.22914
H         -0.55034       -2.39408       -0.45259
H          1.67895       -1.41099       -0.77036
H         -2.61991       -1.72417        1.71348
H         -8.68572        0.45546       -0.98609
H         -7.88111        1.76504       -0.04977
H         -8.41774        2.05385       -1.70588
H         -7.07922       -1.24606        2.03058
H         -8.01461       -0.77019        0.72662
H         -1.64789        2.21162        2.40039
H         -2.81651        1.90176        1.10766
H         -2.68714        0.80233        2.51382

--Link1--
%chk=JID_8198.chk
%mem=8GB
%nprocshared=4
# B3LYP/6-311++G(d,p) empiricaldispersion=gd3bj scf=xqc pop=npa geom=check

CID_46285535_JID_8198_Energie_neutraal

0 1

--Link1--
%chk=JID_8198.chk
%mem=8GB
%nprocshared=4
# B3LYP/6-311++G(d,p) empiricaldispersion=gd3bj scf=xqc pop=npa geom=check

CID_46285535_JID_8198_Energie_kation

1 2

--Link1--
%chk=JID_8198.chk
%mem=8GB
%nprocshared=4
# B3LYP/6-311++G(d,p) empiricaldispersion=gd3bj scf=xqc pop=npa geom=check

CID_46285535_JID_8198_Energie_anion

-1 2
