%chk=JID_5249.chk
%mem=8GB
%nprocshared=4
# opt freq B3LYP/6-31G(d) empiricaldispersion=gd3bj scf=xqc

CID_84619714_JID_5249_neutraal

0 1
C          0.90085        0.00924       -0.00911
C          0.52827       -0.51500       -1.35072
C          0.00809        0.24786       -2.43837
N         -0.20426       -0.63179       -3.46060
C         -0.69993       -0.63033       -4.83315
C         -0.58657       -2.14337       -5.24044
C         -0.03692       -2.75452       -3.99932
C          0.15898       -1.83086       -3.01812
C          0.61657       -1.88929       -1.75972
C          0.97713       -3.17848       -1.35364
C          0.81282       -4.23608       -2.31494
C          0.30798       -4.05776       -3.64698
C         -0.27783        1.70569       -2.55709
N         -1.37745        2.05666       -1.66587
C         -1.76282        3.44880       -1.82455
H          0.09129       -0.17314        0.70456
H          1.09961        1.08477       -0.03757
H          1.80495       -0.48514        0.36086
H         -0.05336        0.01351       -5.43520
H         -1.73382       -0.27512       -4.82809
H          0.08977       -2.26553       -6.09203
H         -1.56947       -2.54986       -5.49777
H          1.36276       -3.38189       -0.36164
H          1.09107       -5.24478       -2.00781
H          0.20778       -4.90013       -4.32200
H          0.62376        2.26915       -2.28910
H         -0.52808        1.95893       -3.59436
H         -2.16939        1.44754       -1.86262
H         -2.11741        3.65556       -2.83957
H         -2.57553        3.68421       -1.13048
H         -0.92891        4.11961       -1.59350

--Link1--
%chk=JID_5249.chk
%mem=8GB
%nprocshared=4
# B3LYP/6-311++G(d,p) empiricaldispersion=gd3bj scf=xqc pop=npa geom=check

CID_84619714_JID_5249_Energie_neutraal

0 1

--Link1--
%chk=JID_5249.chk
%mem=8GB
%nprocshared=4
# B3LYP/6-311++G(d,p) empiricaldispersion=gd3bj scf=xqc pop=npa geom=check

CID_84619714_JID_5249_Energie_kation

1 2

--Link1--
%chk=JID_5249.chk
%mem=8GB
%nprocshared=4
# B3LYP/6-311++G(d,p) empiricaldispersion=gd3bj scf=xqc pop=npa geom=check

CID_84619714_JID_5249_Energie_anion

-1 2
