%chk=JID_6642.chk
%mem=8GB
%nprocshared=4
# opt freq B3LYP/6-31G(d) empiricaldispersion=gd3bj scf=xqc

CID_80448080_JID_6642_neutraal

0 1
C          0.92801       -0.06792       -0.01429
C          0.31492       -0.03414        1.37878
C          0.98368        0.99565        2.30946
C          0.56347        2.42262        1.91008
C          0.64523        0.74254        3.79731
C          1.01014       -0.64076        4.40698
N          2.44913       -0.78714        4.74422
C          2.61000       -1.62786        5.93291
C          3.28559       -1.27912        3.62724
C          3.00845       -2.67447        3.13284
N          1.96617       -3.04374        2.40797
C          2.13235       -4.37482        2.14358
C          3.29755       -4.83532        2.70273
N          3.85150       -3.74853        3.32170
C          5.11106       -3.75120        4.02447
O          1.30380        1.74217        4.59750
H          0.78584        0.87801       -0.54385
H          0.45687       -0.85525       -0.61175
H          2.00080       -0.28004        0.03556
H         -0.75930        0.17263        1.29892
H          0.40268       -1.04220        1.78644
H          2.06932        0.96548        2.18099
H         -0.51765        2.56105        2.01886
H          1.06401        3.17304        2.53076
H          0.83002        2.64171        0.87183
H         -0.43234        0.89542        3.93703
H          0.45410       -0.66405        5.35604
H          0.60709       -1.47844        3.83491
H          2.19647       -2.63344        5.79895
H          3.66740       -1.71524        6.20528
H          2.11377       -1.16849        6.79554
H          3.20795       -0.60597        2.77166
H          4.33489       -1.18928        3.93343
H          1.40784       -4.92818        1.56058
H          3.76148       -5.81144        2.70182
H          4.93284       -3.46594        5.06319
H          5.54606       -4.75358        3.99079
H          5.78546       -3.04434        3.53513
H          2.14116        1.31844        4.87709

--Link1--
%chk=JID_6642.chk
%mem=8GB
%nprocshared=4
# B3LYP/6-311++G(d,p) empiricaldispersion=gd3bj scf=xqc pop=npa geom=check

CID_80448080_JID_6642_Energie_neutraal

0 1

--Link1--
%chk=JID_6642.chk
%mem=8GB
%nprocshared=4
# B3LYP/6-311++G(d,p) empiricaldispersion=gd3bj scf=xqc pop=npa geom=check

CID_80448080_JID_6642_Energie_kation

1 2

--Link1--
%chk=JID_6642.chk
%mem=8GB
%nprocshared=4
# B3LYP/6-311++G(d,p) empiricaldispersion=gd3bj scf=xqc pop=npa geom=check

CID_80448080_JID_6642_Energie_anion

-1 2
