%chk=JID_4768.chk
%mem=8GB
%nprocshared=4
# opt freq B3LYP/6-31G(d) empiricaldispersion=gd3bj scf=xqc

CID_11008684_JID_4768_neutraal

0 1
C          1.06508       -0.06211       -0.04367
C          0.72602        0.94131       -1.12323
C          1.07866        0.39901       -2.50250
C          0.55840       -1.02594       -2.74289
C         -0.96160       -1.02594       -2.74289
N         -2.22256       -1.02594       -2.74289
N          1.13291       -1.44755       -4.04288
C          1.09649       -2.89035       -4.28494
C         -0.22380       -3.39258       -4.81234
C         -0.65617       -3.04047       -6.10080
C         -1.88361       -3.49345       -6.58647
C         -2.68996       -4.30605       -5.79287
C         -2.26836       -4.66985       -4.51563
C         -1.04070       -4.21849       -4.02756
H          0.36250       -0.90030       -0.01775
H          1.00409        0.42227        0.93728
H          2.08285       -0.45029       -0.15407
H         -0.33776        1.19803       -1.06651
H          1.28350        1.86970       -0.95303
H          0.69371        1.09194       -3.26285
H          2.17336        0.40648       -2.60007
H          0.92718       -1.70961       -1.97248
H          0.66041       -0.95844       -4.80287
H          1.86059       -3.12346       -5.03746
H          1.40239       -3.44682       -3.39031
H         -0.03795       -2.40891       -6.73479
H         -2.21396       -3.20819       -7.58176
H         -3.65023       -4.65115       -6.16673
H         -2.90204       -5.29729       -3.89420
H         -0.73565       -4.50765       -3.02474

--Link1--
%chk=JID_4768.chk
%mem=8GB
%nprocshared=4
# B3LYP/6-311++G(d,p) empiricaldispersion=gd3bj scf=xqc pop=npa geom=check

CID_11008684_JID_4768_Energie_neutraal

0 1

--Link1--
%chk=JID_4768.chk
%mem=8GB
%nprocshared=4
# B3LYP/6-311++G(d,p) empiricaldispersion=gd3bj scf=xqc pop=npa geom=check

CID_11008684_JID_4768_Energie_kation

1 2

--Link1--
%chk=JID_4768.chk
%mem=8GB
%nprocshared=4
# B3LYP/6-311++G(d,p) empiricaldispersion=gd3bj scf=xqc pop=npa geom=check

CID_11008684_JID_4768_Energie_anion

-1 2
