%chk=JID_6545.chk
%mem=8GB
%nprocshared=4
# opt freq B3LYP/6-31G(d) empiricaldispersion=gd3bj scf=xqc

CID_76846694_JID_6545_neutraal

0 1
C          1.05976       -0.06792       -0.04261
N          0.49701       -0.38600        1.25862
C         -0.94503       -0.66300        1.20635
C         -1.53566       -1.64829        0.15204
C         -1.08420       -3.09069        0.26442
C          0.19297       -3.55319        0.53846
N          0.18448       -4.91942        0.53676
C         -1.06447       -5.38695        0.21453
C         -1.87900       -4.27309        0.01577
C         -3.21531       -4.50528       -0.37343
C         -3.67727       -5.81777       -0.51858
C         -2.83114       -6.90347       -0.29237
C         -1.49527       -6.71440        0.07677
O         -0.57162       -7.69314        0.30862
C         -1.01603       -9.03669        0.17697
O         -2.96498       -1.53940        0.26815
H          0.54256        0.78133       -0.50086
H          1.03246       -0.91736       -0.73074
H          2.10923        0.21823        0.07990
H          0.98306       -1.18215        1.66399
H         -1.24890       -1.00196        2.20591
H         -1.45705        0.30161        1.08330
H         -1.29214       -1.29312       -0.85563
H          1.12399       -3.03990        0.72478
H          0.97739       -5.52192        0.70839
H         -3.88957       -3.67752       -0.57471
H         -4.70858       -5.98968       -0.81759
H         -3.24418       -7.89855       -0.42251
H         -1.80860       -9.26232        0.89785
H         -1.33910       -9.24674       -0.84784
H         -0.16763       -9.69109        0.39925
H         -3.19690       -1.97321        1.10808

--Link1--
%chk=JID_6545.chk
%mem=8GB
%nprocshared=4
# B3LYP/6-311++G(d,p) empiricaldispersion=gd3bj scf=xqc pop=npa geom=check

CID_76846694_JID_6545_Energie_neutraal

0 1

--Link1--
%chk=JID_6545.chk
%mem=8GB
%nprocshared=4
# B3LYP/6-311++G(d,p) empiricaldispersion=gd3bj scf=xqc pop=npa geom=check

CID_76846694_JID_6545_Energie_kation

1 2

--Link1--
%chk=JID_6545.chk
%mem=8GB
%nprocshared=4
# B3LYP/6-311++G(d,p) empiricaldispersion=gd3bj scf=xqc pop=npa geom=check

CID_76846694_JID_6545_Energie_anion

-1 2
