%chk=JID_218.chk
%mem=8GB
%nprocshared=4
# opt freq B3LYP/6-31G(d) empiricaldispersion=gd3bj scf=xqc

CID_18765892_JID_218_neutraal

0 1
C         -1.50200        0.71300        0.14900
C         -1.71761       -0.75390        0.52833
C         -0.41417       -1.47965        0.89997
N          0.77538       -1.10128        0.08043
C          1.58674       -0.10164        0.80958
C          0.94662        1.25210        0.51154
C         -0.14041        0.94462       -0.52717
C          0.37030       -0.35734       -1.13204
C         -0.62989       -2.97781        0.72293
O         -1.13903       -3.69440        1.58312
H         -1.61546        1.35425        1.03076
H         -2.30231        1.00665       -0.54185
H         -2.43484       -0.81981        1.35587
H         -2.20201       -1.26389       -0.31623
H         -0.21076       -1.33489        1.96905
H          2.60845       -0.12019        0.40948
H          1.67573       -0.30110        1.88306
H          1.69678        1.92781        0.08408
H          0.54830        1.72389        1.41530
H         -0.21672        1.75474       -1.25944
H         -0.36731       -0.89158       -1.74075
H          1.24500       -0.18156       -1.77149
H         -0.39926       -3.38554       -0.27648

--Link1--
%chk=JID_218.chk
%mem=8GB
%nprocshared=4
# B3LYP/6-311++G(d,p) empiricaldispersion=gd3bj scf=xqc pop=npa geom=check

CID_18765892_JID_218_Energie_neutraal

0 1

--Link1--
%chk=JID_218.chk
%mem=8GB
%nprocshared=4
# B3LYP/6-311++G(d,p) empiricaldispersion=gd3bj scf=xqc pop=npa geom=check

CID_18765892_JID_218_Energie_kation

1 2

--Link1--
%chk=JID_218.chk
%mem=8GB
%nprocshared=4
# B3LYP/6-311++G(d,p) empiricaldispersion=gd3bj scf=xqc pop=npa geom=check

CID_18765892_JID_218_Energie_anion

-1 2
