%chk=JID_10397.chk
%mem=8GB
%nprocshared=4
# opt freq B3LYP/6-31G(d) empiricaldispersion=gd3bj scf=xqc

CID_66269216_JID_10397_neutraal

0 1
C          1.02304        0.03760       -0.08975
N          0.57461       -1.33158        0.01371
C         -0.12717       -1.90698        1.04328
O         -0.19980       -3.12852        1.13765
C         -0.78133       -1.05312        2.05881
C         -0.57739       -1.35895        3.41239
C         -1.19704       -0.61084        4.41826
C         -1.97971        0.48713        4.02475
C         -2.20816        0.78086        2.67642
C         -1.61891       -0.00020        1.68779
N         -0.96546       -0.80369        5.78512
C         -0.51077       -2.11535        6.26185
C         -0.38490       -2.22741        7.74666
C          0.43076       -1.53021        8.61423
N          0.11828       -2.03762        9.83684
N         -0.82982       -2.98755        9.74696
N         -1.15195       -3.10805        8.46660
C          0.66014       -1.66608       11.12756
C         -0.42295       -1.16596       12.07687
O         -1.19340       -2.24245       12.60564
H          1.23478        0.45230        0.89866
H          0.25010        0.62559       -0.59003
H          1.93297        0.05443       -0.69499
H          0.98088       -2.01426       -0.61546
H          0.07618       -2.19285        3.65108
H         -2.43507        1.12557        4.77911
H         -2.84653        1.61756        2.40475
H         -1.81823        0.20873        0.64096
H         -1.74773       -0.46972        6.34467
H         -1.20509       -2.88981        5.91158
H          0.47641       -2.34015        5.83974
H          1.16423       -0.75304        8.45763
H          1.16467       -2.55332       11.52497
H          1.40226       -0.87944       10.95537
H          0.04148       -0.66011       12.92896
H         -1.10172       -0.45789       11.58968
H         -1.55675       -2.74022       11.84349

--Link1--
%chk=JID_10397.chk
%mem=8GB
%nprocshared=4
# B3LYP/6-311++G(d,p) empiricaldispersion=gd3bj scf=xqc pop=npa geom=check

CID_66269216_JID_10397_Energie_neutraal

0 1

--Link1--
%chk=JID_10397.chk
%mem=8GB
%nprocshared=4
# B3LYP/6-311++G(d,p) empiricaldispersion=gd3bj scf=xqc pop=npa geom=check

CID_66269216_JID_10397_Energie_kation

1 2

--Link1--
%chk=JID_10397.chk
%mem=8GB
%nprocshared=4
# B3LYP/6-311++G(d,p) empiricaldispersion=gd3bj scf=xqc pop=npa geom=check

CID_66269216_JID_10397_Energie_anion

-1 2
