%chk=JID_10711.chk
%mem=8GB
%nprocshared=4
# opt freq B3LYP/6-31G(d) empiricaldispersion=gd3bj scf=xqc

CID_116762966_JID_10711_neutraal

0 1
C          1.01473        0.06477       -0.07475
C         -0.46399       -0.31154       -0.02023
C         -1.18805        0.53507        1.03344
N         -1.07734       -0.23101       -1.34093
C         -1.07063       -1.16933       -2.34759
N         -1.87346       -0.75721       -3.30992
C         -2.28242        0.47043       -2.88365
N         -1.79856        0.84937       -1.70294
C         -0.32780       -2.46446       -2.29489
C          0.20068       -2.96633       -3.66483
C          1.60316       -2.39861       -4.17648
C          1.78629       -2.74634       -5.68978
C          0.96589       -1.89017       -6.64762
C          1.26619       -0.41279       -6.44545
C          1.03101       -0.00585       -4.99946
C          1.81550       -0.87490       -4.01809
O          2.71831       -3.12779       -3.58877
C          3.01256       -2.94568       -2.21793
N          0.29297       -4.45275       -3.53732
C         -0.72396       -5.13237       -4.32596
H          1.58069       -0.61671       -0.71165
H          1.46383        0.02486        0.92343
H          1.15310        1.07770       -0.46917
H         -0.55297       -1.35936        0.29169
H         -1.10505        1.60643        0.81707
H         -2.25303        0.28228        1.07831
H         -0.76044        0.36313        2.02703
H         -2.94720        1.10743       -3.45357
H          0.47803       -2.41645       -1.56390
H         -1.04965       -3.19132       -1.89474
H         -0.55027       -2.70864       -4.42127
H          2.84853       -2.62930       -5.95149
H          1.57548       -3.80604       -5.87457
H         -0.10456       -2.07767       -6.51082
H          1.20348       -2.17037       -7.68027
H          0.63389        0.18885       -7.10800
H          2.30725       -0.20510       -6.72138
H         -0.03779       -0.06530       -4.79372
H          1.31691        1.04369       -4.86377
H          1.59093       -0.55192       -2.99909
H          2.88437       -0.65515       -4.15096
H          3.98465       -3.40879       -2.02308
H          3.09377       -1.89112       -1.94984
H          2.28463       -3.45881       -1.58825
H          1.22587       -4.74654       -3.84164
H         -0.62014       -4.91478       -5.39348
H         -0.62416       -6.21380       -4.19186
H         -1.72981       -4.85128       -3.99806

--Link1--
%chk=JID_10711.chk
%mem=8GB
%nprocshared=4
# B3LYP/6-311++G(d,p) empiricaldispersion=gd3bj scf=xqc pop=npa geom=check

CID_116762966_JID_10711_Energie_neutraal

0 1

--Link1--
%chk=JID_10711.chk
%mem=8GB
%nprocshared=4
# B3LYP/6-311++G(d,p) empiricaldispersion=gd3bj scf=xqc pop=npa geom=check

CID_116762966_JID_10711_Energie_kation

1 2

--Link1--
%chk=JID_10711.chk
%mem=8GB
%nprocshared=4
# B3LYP/6-311++G(d,p) empiricaldispersion=gd3bj scf=xqc pop=npa geom=check

CID_116762966_JID_10711_Energie_anion

-1 2
