%chk=JID_6000.chk
%mem=8GB
%nprocshared=4
# opt freq B3LYP/6-31G(d) empiricaldispersion=gd3bj scf=xqc

CID_104766138_JID_6000_neutraal

0 1
C          0.98014        0.03272        0.09239
C          0.34539       -0.09160        1.48126
C          0.82708        1.05786        2.36849
N         -1.11214       -0.10753        1.29878
C         -1.89638       -0.30726        2.52480
C         -3.39152       -0.30882        2.17739
C         -4.02107       -1.10511        3.30349
N         -3.00352       -2.06362        3.64551
C         -1.74056       -1.68080        3.19426
O         -0.71050       -2.30681        3.39010
C         -3.27113       -3.31764        4.33908
C         -2.54597       -3.45769        5.68572
O         -3.41491       -3.49566        6.81906
C         -3.93826       -2.28040        7.35273
C         -3.01881       -1.06657        7.27445
C         -5.32427       -1.99972        6.78663
H          0.70222        0.97319       -0.39716
H          0.66827       -0.79321       -0.55700
H          2.07301        0.00141        0.16256
H          0.69227       -1.03955        1.90231
H          0.46195        2.02497        2.00537
H          0.49515        0.93338        3.40389
H          1.92183        1.09976        2.38460
H         -1.40160        0.76220        0.85361
H         -1.70051        0.46816        3.27376
H         -3.80949        0.69878        2.08880
H         -3.56933       -0.82959        1.22641
H         -4.21845       -0.47517        4.17525
H         -4.93910       -1.60677        2.98507
H         -4.35167       -3.45546        4.43895
H         -2.89911       -4.10148        3.66788
H         -2.05734       -4.43951        5.68499
H         -1.74117       -2.73145        5.82956
H         -4.08417       -2.49218        8.41932
H         -2.86524       -0.73709        6.24314
H         -3.43959       -0.22404        7.83295
H         -2.03491       -1.29943        7.69491
H         -5.96377       -2.88342        6.88606
H         -5.80116       -1.16494        7.31001
H         -5.28928       -1.75588        5.72467

--Link1--
%chk=JID_6000.chk
%mem=8GB
%nprocshared=4
# B3LYP/6-311++G(d,p) empiricaldispersion=gd3bj scf=xqc pop=npa geom=check

CID_104766138_JID_6000_Energie_neutraal

0 1

--Link1--
%chk=JID_6000.chk
%mem=8GB
%nprocshared=4
# B3LYP/6-311++G(d,p) empiricaldispersion=gd3bj scf=xqc pop=npa geom=check

CID_104766138_JID_6000_Energie_kation

1 2

--Link1--
%chk=JID_6000.chk
%mem=8GB
%nprocshared=4
# B3LYP/6-311++G(d,p) empiricaldispersion=gd3bj scf=xqc pop=npa geom=check

CID_104766138_JID_6000_Energie_anion

-1 2
