%chk=JID_3980.chk
%mem=8GB
%nprocshared=4
# opt freq B3LYP/6-31G(d) empiricaldispersion=gd3bj scf=xqc

CID_13162396_JID_3980_neutraal

0 1
C          1.00354        0.08557        0.05162
C          0.58005        1.13214        1.05207
O         -0.25705        1.98853        0.75628
C          1.21677        1.09764        2.42040
C          0.75181       -0.11492        3.14677
N          1.27094       -1.31666        2.98116
C          0.61610       -2.21437        3.79664
C         -0.37693       -1.67724        4.58851
S         -0.52861       -0.00989        4.29760
C         -1.22952       -2.44460        5.54060
C         -0.60371       -3.82485        5.81551
C         -0.09243       -4.49671        4.52839
C          0.99371       -3.65648        3.83290
H          0.70088        0.39846       -0.95183
H          0.52765       -0.86934        0.28503
H          2.09132       -0.02034        0.06272
H          2.30542        1.08604        2.30163
H          0.96328        2.01968        2.95517
H         -2.22522       -2.57920        5.10093
H         -1.35310       -1.90455        6.48592
H         -1.34273       -4.46879        6.30550
H          0.23556       -3.71262        6.51426
H          0.30656       -5.49116        4.75782
H         -0.93790       -4.64084        3.84327
H          1.93885       -3.75684        4.37957
H          1.15814       -4.03248        2.81726

--Link1--
%chk=JID_3980.chk
%mem=8GB
%nprocshared=4
# B3LYP/6-311++G(d,p) empiricaldispersion=gd3bj scf=xqc pop=npa geom=check

CID_13162396_JID_3980_Energie_neutraal

0 1

--Link1--
%chk=JID_3980.chk
%mem=8GB
%nprocshared=4
# B3LYP/6-311++G(d,p) empiricaldispersion=gd3bj scf=xqc pop=npa geom=check

CID_13162396_JID_3980_Energie_kation

1 2

--Link1--
%chk=JID_3980.chk
%mem=8GB
%nprocshared=4
# B3LYP/6-311++G(d,p) empiricaldispersion=gd3bj scf=xqc pop=npa geom=check

CID_13162396_JID_3980_Energie_anion

-1 2
