%chk=JID_5896.chk
%mem=8GB
%nprocshared=4
# opt freq B3LYP/6-31G(d) empiricaldispersion=gd3bj scf=xqc

CID_80593294_JID_5896_neutraal

0 1
C          1.06429       -0.03406       -0.06861
C          0.39343       -0.91170        0.98897
C          0.79344       -0.43209        2.38752
C         -1.14279       -0.91759        0.86289
C         -1.70212       -1.38999       -0.49119
C         -1.29614       -2.82438       -0.82530
N         -3.15763       -1.29152       -0.46555
C         -4.01132       -0.92624       -1.47458
O         -5.22197       -1.06248       -1.32451
C         -3.45605       -0.29625       -2.73046
C         -4.20856        0.94808       -3.23851
C         -2.88211        1.12376       -2.58310
C         -2.89149       -1.19766       -3.78513
S         -3.89589       -2.21724       -4.62505
N         -1.55194       -1.14472       -4.04843
H          0.66995        0.98745       -0.04499
H          0.91312       -0.43584       -1.07505
H          2.14567        0.01751        0.09857
H          0.76855       -1.93564        0.87620
H          0.46122        0.59636        2.56592
H          0.35101       -1.07071        3.15941
H          1.88097       -0.46314        2.51340
H         -1.56020       -1.54825        1.66015
H         -1.51989        0.09596        1.05927
H         -1.33120       -0.73043       -1.27695
H         -1.59051       -3.51342       -0.02585
H         -1.78160       -3.16823       -1.74443
H         -0.21559       -2.91074       -0.97209
H         -3.64903       -1.73625        0.30170
H         -4.27762        1.11009       -4.30863
H         -5.09764        1.25824       -2.69851
H         -2.86765        1.56967       -1.59379
H         -2.06194        1.44303       -3.21421
H         -0.92132       -0.50288       -3.58866
H         -1.17887       -1.72743       -4.78929

--Link1--
%chk=JID_5896.chk
%mem=8GB
%nprocshared=4
# B3LYP/6-311++G(d,p) empiricaldispersion=gd3bj scf=xqc pop=npa geom=check

CID_80593294_JID_5896_Energie_neutraal

0 1

--Link1--
%chk=JID_5896.chk
%mem=8GB
%nprocshared=4
# B3LYP/6-311++G(d,p) empiricaldispersion=gd3bj scf=xqc pop=npa geom=check

CID_80593294_JID_5896_Energie_kation

1 2

--Link1--
%chk=JID_5896.chk
%mem=8GB
%nprocshared=4
# B3LYP/6-311++G(d,p) empiricaldispersion=gd3bj scf=xqc pop=npa geom=check

CID_80593294_JID_5896_Energie_anion

-1 2
