%chk=JID_6978.chk
%mem=8GB
%nprocshared=4
# opt freq B3LYP/6-31G(d) empiricaldispersion=gd3bj scf=xqc

CID_80791205_JID_6978_neutraal

0 1
C          1.09530        0.00167        0.03025
C          1.06232       -0.77858        1.33822
C          1.36678        0.06627        2.58302
C          0.32224        1.10836        2.90110
C          0.49621        2.44946        2.57793
N         -0.40874        3.39588        2.84736
C         -1.53246        2.97803        3.43105
N         -1.82826        1.71680        3.76811
C         -0.88302        0.78806        3.53083
N         -1.11647       -0.49927        4.00234
C         -0.71586       -0.72534        5.39530
C         -1.78118       -0.36341        6.41780
C         -2.21242       -1.29308        3.42278
C         -3.63388       -0.73986        3.59515
O         -3.91583        0.29720        2.65878
N          1.66236        2.92689        1.97844
H          0.31742        0.77017        0.00119
H          0.92462       -0.67514       -0.81325
H          2.06850        0.48017       -0.11591
H          0.08921       -1.26959        1.43277
H          1.80950       -1.57935        1.27693
H          1.47610       -0.60430        3.44451
H          2.35592        0.52753        2.47516
H         -2.28001        3.73221        3.65179
H         -0.45514       -1.78363        5.51760
H          0.20063       -0.16641        5.62596
H         -2.63582       -1.04356        6.35630
H         -1.37315       -0.45061        7.43025
H         -2.14376        0.66048        6.28937
H         -2.01361       -1.42685        2.35312
H         -2.17679       -2.29297        3.87248
H         -4.35404       -1.54039        3.39800
H         -3.82834       -0.35747        4.59882
H         -3.28026        1.00691        2.88918
H          1.52618        3.92240        1.82010
H          1.86619        2.44065        1.11418

--Link1--
%chk=JID_6978.chk
%mem=8GB
%nprocshared=4
# B3LYP/6-311++G(d,p) empiricaldispersion=gd3bj scf=xqc pop=npa geom=check

CID_80791205_JID_6978_Energie_neutraal

0 1

--Link1--
%chk=JID_6978.chk
%mem=8GB
%nprocshared=4
# B3LYP/6-311++G(d,p) empiricaldispersion=gd3bj scf=xqc pop=npa geom=check

CID_80791205_JID_6978_Energie_kation

1 2

--Link1--
%chk=JID_6978.chk
%mem=8GB
%nprocshared=4
# B3LYP/6-311++G(d,p) empiricaldispersion=gd3bj scf=xqc pop=npa geom=check

CID_80791205_JID_6978_Energie_anion

-1 2
