%chk=JID_10929.chk
%mem=8GB
%nprocshared=4
# opt freq B3LYP/6-31G(d) empiricaldispersion=gd3bj scf=xqc

CID_66028622_JID_10929_neutraal

0 1
C          1.05933       -0.02037       -0.07788
C         -0.42525       -0.13667       -0.38418
C         -0.79736       -1.46698       -1.04107
N         -0.53792       -2.64657       -0.23125
C          0.05021       -3.82267       -0.65915
C         -0.05489       -4.66265        0.43773
C         -0.63004       -3.89394        1.47688
N         -0.93095       -2.66125        1.05861
C         -0.91875       -4.29626        2.87608
N          0.28755       -6.03522        0.54344
O          1.49215       -6.31104        0.54945
O         -0.64807       -6.83087        0.68362
O          0.47426       -3.88611       -1.92452
C          1.54187       -4.75752       -2.30450
C          1.39640       -4.93535       -3.82444
C          2.02667       -3.67981       -4.44035
C          2.83276       -3.01782       -3.32307
C          2.92822       -4.08886       -2.23166
C          3.37050       -3.50630       -0.89213
N          3.78157       -4.55495        0.03037
H          1.37264       -0.75256        0.67249
H          1.28553        0.97628        0.31429
H          1.66030       -0.17371       -0.97995
H         -0.99788        0.01018        0.53876
H         -0.70847        0.67630       -1.06338
H         -1.87002       -1.48469       -1.26610
H         -0.25937       -1.56882       -1.98947
H         -1.80806       -4.93218        2.91519
H         -0.07493       -4.85040        3.30013
H         -1.09343       -3.42269        3.51337
H          1.48542       -5.73231       -1.82045
H          1.95344       -5.81994       -4.15579
H          0.35447       -5.04597       -4.14214
H          1.26091       -2.99290       -4.81652
H          2.66913       -3.95106       -5.28508
H          2.30437       -2.12882       -2.95701
H          3.81972       -2.69579       -3.67039
H          3.68298       -4.82212       -2.55497
H          4.23237       -2.84787       -1.04889
H          2.58836       -2.89290       -0.43810
H          3.97500       -4.15769        0.94830
H          3.03830       -5.24523        0.17198

--Link1--
%chk=JID_10929.chk
%mem=8GB
%nprocshared=4
# B3LYP/6-311++G(d,p) empiricaldispersion=gd3bj scf=xqc pop=npa geom=check

CID_66028622_JID_10929_Energie_neutraal

0 1

--Link1--
%chk=JID_10929.chk
%mem=8GB
%nprocshared=4
# B3LYP/6-311++G(d,p) empiricaldispersion=gd3bj scf=xqc pop=npa geom=check

CID_66028622_JID_10929_Energie_kation

1 2

--Link1--
%chk=JID_10929.chk
%mem=8GB
%nprocshared=4
# B3LYP/6-311++G(d,p) empiricaldispersion=gd3bj scf=xqc pop=npa geom=check

CID_66028622_JID_10929_Energie_anion

-1 2
