%chk=JID_2266.chk
%mem=8GB
%nprocshared=4
# opt freq B3LYP/6-31G(d) empiricaldispersion=gd3bj scf=xqc

CID_135275472_JID_2266_neutraal

0 1
C          1.03190       -0.09285        0.01901
C          0.83306        1.28355        0.62482
C          1.41943        2.34818       -0.27573
N          0.69243        2.97456       -1.14937
C          2.90235        2.67410       -0.16709
N          3.21209        3.28346        1.13403
C          4.36654        2.68313        1.83116
C          5.70654        3.04915        1.15439
N          5.96751        4.48755        1.12395
C          2.62488        4.47154        1.55262
N          1.78809        5.16872        0.85899
C          2.93835        5.03495        2.92755
H          0.56951       -0.15696       -0.97157
H          0.58229       -0.85906        0.65794
H          2.09557       -0.32551       -0.09502
H         -0.23554        1.47833        0.76554
H          1.30925        1.33544        1.60873
H         -0.28461        2.66071       -1.10164
H          3.45301        1.73860       -0.31728
H          3.19496        3.35576       -0.97403
H          4.39669        2.96685        2.88790
H          4.25639        1.59124        1.82843
H          6.52366        2.55444        1.69001
H          5.71705        2.67033        0.12636
H          6.74974        4.68556        0.50209
H          5.15537        4.96177        0.72063
H          1.58530        4.74035       -0.05043
H          2.70277        4.28924        3.69204
H          3.99318        5.31002        2.99315
H          2.33774        5.92863        3.12374

--Link1--
%chk=JID_2266.chk
%mem=8GB
%nprocshared=4
# B3LYP/6-311++G(d,p) empiricaldispersion=gd3bj scf=xqc pop=npa geom=check

CID_135275472_JID_2266_Energie_neutraal

0 1

--Link1--
%chk=JID_2266.chk
%mem=8GB
%nprocshared=4
# B3LYP/6-311++G(d,p) empiricaldispersion=gd3bj scf=xqc pop=npa geom=check

CID_135275472_JID_2266_Energie_kation

1 2

--Link1--
%chk=JID_2266.chk
%mem=8GB
%nprocshared=4
# B3LYP/6-311++G(d,p) empiricaldispersion=gd3bj scf=xqc pop=npa geom=check

CID_135275472_JID_2266_Energie_anion

-1 2
