%chk=JID_1982.chk
%mem=8GB
%nprocshared=4
# opt freq B3LYP/6-31G(d) empiricaldispersion=gd3bj scf=xqc

CID_129939879_JID_1982_neutraal

0 1
C         -0.03300       -1.86300        0.26400
C          1.10549       -1.11013       -0.40944
C          1.04863        0.33691        0.03335
O          2.04008        1.06222       -0.02330
N         -0.17974        0.83946        0.36907
C         -1.36911        0.17405        0.30588
O         -2.44772        0.74163        0.41670
N         -1.28165       -1.16761        0.08974
C          1.01080       -1.16294       -1.93512
C          2.38815       -1.02659       -2.53070
O          2.96430       -1.95658       -3.08665
H         -0.14526       -2.87628       -0.13429
H          0.14476       -1.93938        1.34348
H          2.05326       -1.53853       -0.06037
H         -0.23379        1.83045        0.55491
H         -2.16306       -1.66427        0.16652
H          0.60478       -2.12382       -2.27122
H          0.38313       -0.36836       -2.35262
H          2.86807       -0.03809       -2.42798

--Link1--
%chk=JID_1982.chk
%mem=8GB
%nprocshared=4
# B3LYP/6-311++G(d,p) empiricaldispersion=gd3bj scf=xqc pop=npa geom=check

CID_129939879_JID_1982_Energie_neutraal

0 1

--Link1--
%chk=JID_1982.chk
%mem=8GB
%nprocshared=4
# B3LYP/6-311++G(d,p) empiricaldispersion=gd3bj scf=xqc pop=npa geom=check

CID_129939879_JID_1982_Energie_kation

1 2

--Link1--
%chk=JID_1982.chk
%mem=8GB
%nprocshared=4
# B3LYP/6-311++G(d,p) empiricaldispersion=gd3bj scf=xqc pop=npa geom=check

CID_129939879_JID_1982_Energie_anion

-1 2
