%chk=JID_6948.chk
%mem=8GB
%nprocshared=4
# opt freq B3LYP/6-31G(d) empiricaldispersion=gd3bj scf=xqc

CID_64541571_JID_6948_neutraal

0 1
C          0.96303        0.08403        0.03966
C          0.45841       -0.49473        1.34575
O          1.19227       -0.05847        2.48199
C          2.51177       -0.56726        2.71642
C          2.70162       -2.04002        2.34207
C          3.61168        0.33995        2.11094
C          3.45577        1.84162        2.44326
C          3.34302        2.26541        3.89284
C          4.05642        1.64449        4.92782
C          3.93756        2.07542        6.25511
C          3.12800        3.17017        6.55141
C          2.43392        3.81915        5.52999
C          2.54131        3.37092        4.21304
O          4.66888        1.35331        7.15927
C          4.40081        1.59758        8.53414
O          4.91571       -0.13851        2.46627
H          1.12336        1.16307        0.12347
H          0.24418       -0.10375       -0.76380
H          1.91112       -0.37171       -0.25635
H         -0.56688       -0.13888        1.49695
H          0.39474       -1.58621        1.30417
H          2.63107       -0.53755        3.80581
H          2.68605       -2.18415        1.25704
H          3.65633       -2.42395        2.71560
H          1.90069       -2.65334        2.76810
H          3.56969        0.26074        1.02012
H          4.31436        2.38479        2.02670
H          2.56800        2.20422        1.90924
H          4.70767        0.79839        4.72367
H          3.02213        3.54780        7.56232
H          1.80663        4.67632        5.75980
H          1.98867        3.89270        3.43431
H          4.73813        2.59705        8.82679
H          3.33981        1.45442        8.76600
H          4.96938        0.86906        9.12015
H          5.56647        0.51367        2.15406

--Link1--
%chk=JID_6948.chk
%mem=8GB
%nprocshared=4
# B3LYP/6-311++G(d,p) empiricaldispersion=gd3bj scf=xqc pop=npa geom=check

CID_64541571_JID_6948_Energie_neutraal

0 1

--Link1--
%chk=JID_6948.chk
%mem=8GB
%nprocshared=4
# B3LYP/6-311++G(d,p) empiricaldispersion=gd3bj scf=xqc pop=npa geom=check

CID_64541571_JID_6948_Energie_kation

1 2

--Link1--
%chk=JID_6948.chk
%mem=8GB
%nprocshared=4
# B3LYP/6-311++G(d,p) empiricaldispersion=gd3bj scf=xqc pop=npa geom=check

CID_64541571_JID_6948_Energie_anion

-1 2
