%chk=JID_9876.chk
%mem=8GB
%nprocshared=4
# opt freq B3LYP/6-31G(d) empiricaldispersion=gd3bj scf=xqc

CID_117413075_JID_9876_neutraal

0 1
C          0.98976       -0.04855       -0.08682
C          0.53978        1.36507       -0.33148
C         -0.45353        1.56436       -1.31219
C         -0.88919        2.84252       -1.65667
C         -0.36028        3.94848       -1.00107
C          0.59879        3.76700       -0.00334
C          1.08719        2.48391        0.33536
C          2.15974        2.43271        1.41622
C          1.60182        2.45312        2.86589
N          1.21921        1.09908        3.31544
C          0.86788        1.09966        4.73056
O          3.05261        1.32779        1.25993
O         -0.78887        5.23090       -1.21375
C         -0.54825        5.66152       -2.55781
C         -1.60934        5.13914       -3.49016
C         -2.07621        6.03102       -4.62616
C         -2.98500        5.77567       -3.45702
C         -1.50520        3.65801       -3.73991
O         -1.89659        2.91856       -2.57959
H          0.33694       -0.76881       -0.59313
H          0.95879       -0.30275        0.97367
H          1.99978       -0.19914       -0.47984
H         -0.89244        0.71173       -1.82661
H          0.98041        4.64854        0.50871
H          2.79010        3.32238        1.29084
H          2.41165        2.80372        3.51832
H          0.76359        3.15300        2.96020
H          0.39777        0.81002        2.77847
H          0.02334        1.76510        4.93503
H          0.58234        0.08730        5.03316
H          1.72039        1.39833        5.34906
H          2.84913        0.74307        2.01906
H          0.45832        5.37461       -2.89227
H         -0.56204        6.75768       -2.53738
H         -2.33864        5.57752       -5.57604
H         -1.64917        7.02322       -4.72475
H         -3.84892        5.13663       -3.60560
H         -3.15970        6.58286       -2.75384
H         -2.18679        3.35514       -4.54364
H         -0.49662        3.37467       -4.07137

--Link1--
%chk=JID_9876.chk
%mem=8GB
%nprocshared=4
# B3LYP/6-311++G(d,p) empiricaldispersion=gd3bj scf=xqc pop=npa geom=check

CID_117413075_JID_9876_Energie_neutraal

0 1

--Link1--
%chk=JID_9876.chk
%mem=8GB
%nprocshared=4
# B3LYP/6-311++G(d,p) empiricaldispersion=gd3bj scf=xqc pop=npa geom=check

CID_117413075_JID_9876_Energie_kation

1 2

--Link1--
%chk=JID_9876.chk
%mem=8GB
%nprocshared=4
# B3LYP/6-311++G(d,p) empiricaldispersion=gd3bj scf=xqc pop=npa geom=check

CID_117413075_JID_9876_Energie_anion

-1 2
