%chk=JID_8271.chk
%mem=8GB
%nprocshared=4
# opt freq B3LYP/6-31G(d) empiricaldispersion=gd3bj scf=xqc

CID_127699717_JID_8271_neutraal

0 1
C         -0.31100        1.37300        0.31600
C          1.16538        1.26963       -0.07499
C          1.63192       -0.14445       -0.26313
C          0.79402       -1.18877       -0.35702
C         -0.70299       -1.06115       -0.31401
C         -1.17393        0.39636       -0.48264
N         -1.11446       -1.62443        0.96349
C         -2.41174       -1.88240        1.29259
O         -2.81538       -1.55785        2.40665
N         -3.21074       -2.44852        0.32581
C         -2.75175       -3.63533       -0.40654
C         -3.46891       -3.74338       -1.74845
O         -4.88649       -3.68748       -1.55083
C         -5.35354       -2.52290       -0.80309
C         -4.65543       -2.42776        0.56080
C         -6.90372       -2.42062       -0.70073
C         -6.87337       -1.52281       -1.95053
C         -5.41150       -1.18655       -1.60732
H         -0.66130        2.39913        0.15587
H         -0.42166        1.16770        1.38820
H          1.33824        1.81566       -1.01010
H          1.77366        1.75465        0.69687
H          2.70503       -0.30966       -0.32383
H          1.19927       -2.18991       -0.48266
H         -1.13535       -1.64105       -1.13328
H         -2.22437        0.50549       -0.18877
H         -1.11489        0.66878       -1.54486
H         -0.64141       -1.21996        1.76170
H         -1.66700       -3.64596       -0.53741
H         -2.99871       -4.50153        0.22084
H         -3.17283       -2.93125       -2.42096
H         -3.22981       -4.69355       -2.23504
H         -4.91471       -3.27893        1.20208
H         -4.93568       -1.50888        1.08921
H         -7.45202       -3.35930       -0.82177
H         -7.27138       -1.91272        0.19871
H         -7.56787       -0.67896       -1.94610
H         -6.98743       -2.07412       -2.89100
H         -5.29805       -0.28230       -0.99742
H         -4.74600       -1.10779       -2.47117

--Link1--
%chk=JID_8271.chk
%mem=8GB
%nprocshared=4
# B3LYP/6-311++G(d,p) empiricaldispersion=gd3bj scf=xqc pop=npa geom=check

CID_127699717_JID_8271_Energie_neutraal

0 1

--Link1--
%chk=JID_8271.chk
%mem=8GB
%nprocshared=4
# B3LYP/6-311++G(d,p) empiricaldispersion=gd3bj scf=xqc pop=npa geom=check

CID_127699717_JID_8271_Energie_kation

1 2

--Link1--
%chk=JID_8271.chk
%mem=8GB
%nprocshared=4
# B3LYP/6-311++G(d,p) empiricaldispersion=gd3bj scf=xqc pop=npa geom=check

CID_127699717_JID_8271_Energie_anion

-1 2
