%chk=JID_8467.chk
%mem=8GB
%nprocshared=4
# opt freq B3LYP/6-31G(d) empiricaldispersion=gd3bj scf=xqc

CID_134968186_JID_8467_neutraal

0 1
C          0.91680       -0.05524        0.00519
C          2.05699       -0.73791        0.20464
C          3.23741       -0.45271       -0.59893
C          4.47578       -0.74426       -0.17345
C          5.64623       -0.33994       -0.91131
C          5.56007        0.35874       -2.05373
C          6.73598        0.87377       -2.72677
C          6.63699        1.92667       -3.55215
C          5.38011        2.65773       -3.74343
C          4.21611        2.09488       -3.32950
C          4.23310        0.67597       -2.73999
C          2.96666        0.21471       -1.94896
C          1.82983        1.22166       -1.85178
C          0.85095        1.03931       -0.94434
C          1.83205        2.34203       -2.75978
C          2.91826        2.73767       -3.43639
C          5.55248        4.01580       -4.38282
O          6.36028        4.84749       -3.55459
H          0.04001       -0.24919        0.61527
H          2.12102       -1.48413        0.99052
H          4.64500       -1.21704        0.79023
H          6.60780       -0.54969       -0.45011
H          7.70272        0.42154       -2.52733
H          7.52930        2.31692       -4.03682
H          4.23148        0.03000       -3.63761
H          2.54511       -0.59652       -2.57068
H          0.01373        1.72460       -0.85313
H          0.91578        2.92109       -2.85176
H          2.81723        3.62102       -4.05858
H          6.04590        3.92064       -5.35643
H          4.61406        4.54530       -4.55391
H          6.07296        4.68736       -2.63827

--Link1--
%chk=JID_8467.chk
%mem=8GB
%nprocshared=4
# B3LYP/6-311++G(d,p) empiricaldispersion=gd3bj scf=xqc pop=npa geom=check

CID_134968186_JID_8467_Energie_neutraal

0 1

--Link1--
%chk=JID_8467.chk
%mem=8GB
%nprocshared=4
# B3LYP/6-311++G(d,p) empiricaldispersion=gd3bj scf=xqc pop=npa geom=check

CID_134968186_JID_8467_Energie_kation

1 2

--Link1--
%chk=JID_8467.chk
%mem=8GB
%nprocshared=4
# B3LYP/6-311++G(d,p) empiricaldispersion=gd3bj scf=xqc pop=npa geom=check

CID_134968186_JID_8467_Energie_anion

-1 2
