%chk=JID_3939.chk
%mem=8GB
%nprocshared=4
# opt freq B3LYP/6-31G(d) empiricaldispersion=gd3bj scf=xqc

CID_107784737_JID_3939_neutraal

0 1
C          1.08987        0.04374       -0.00323
C          0.49364       -0.61674        1.24270
C          0.61426        0.27812        2.50092
C          0.25265        1.76192        2.40025
S         -1.52488        2.10219        2.29140
C         -0.94234       -1.12299        0.99884
C         -1.08570       -2.26590       -0.01533
S         -0.57198       -3.89223        0.61846
C          1.07402       -3.95814        0.12122
N          2.13106       -3.79509        0.87722
C          3.19965       -3.96497        0.03384
C          2.77465       -4.23903       -1.24630
N          1.40832       -4.24690       -1.16893
H          0.45381        0.85398       -0.37354
H          1.21423       -0.68024       -0.81416
H          2.08089        0.45667        0.21352
H          1.11404       -1.48875        1.47048
H          0.07252       -0.18429        3.33639
H          1.67291        0.24711        2.79770
H          0.60557        2.25955        3.31054
H          0.76256        2.24559        1.56228
H         -1.64886        1.86853        0.97808
H         -1.39900       -1.42577        1.94976
H         -1.54882       -0.29464        0.61856
H         -2.15097       -2.36637       -0.25369
H         -0.58502       -2.03906       -0.96112
H          4.21693       -3.88499        0.39540
H          3.30595       -4.43495       -2.16634
H          0.75364       -4.43848       -1.91290

--Link1--
%chk=JID_3939.chk
%mem=8GB
%nprocshared=4
# B3LYP/6-311++G(d,p) empiricaldispersion=gd3bj scf=xqc pop=npa geom=check

CID_107784737_JID_3939_Energie_neutraal

0 1

--Link1--
%chk=JID_3939.chk
%mem=8GB
%nprocshared=4
# B3LYP/6-311++G(d,p) empiricaldispersion=gd3bj scf=xqc pop=npa geom=check

CID_107784737_JID_3939_Energie_kation

1 2

--Link1--
%chk=JID_3939.chk
%mem=8GB
%nprocshared=4
# B3LYP/6-311++G(d,p) empiricaldispersion=gd3bj scf=xqc pop=npa geom=check

CID_107784737_JID_3939_Energie_anion

-1 2
