%chk=JID_4255.chk
%mem=8GB
%nprocshared=4
# opt freq B3LYP/6-31G(d) empiricaldispersion=gd3bj scf=xqc

CID_117100316_JID_4255_neutraal

0 1
C          1.02168       -0.08165        0.05351
O          0.34503       -0.54661        1.22103
C          1.16687       -1.02126        2.19226
O          2.39303       -1.02741        2.11941
C          0.40335       -1.51796        3.42671
C         -1.14436       -1.61889        3.29344
C         -1.66541       -0.59058        4.31869
C         -1.34569        0.83122        3.83058
C          0.16159        0.95188        4.09130
C          0.54152       -0.46297        4.57915
C         -0.67331       -0.76712        5.46466
C          1.02735       -2.87838        3.85652
C          0.84811       -4.02820        2.86207
O          1.39127       -3.72652        1.58838
H          0.26844        0.26945       -0.65713
H          1.58517       -0.89586       -0.41284
H          1.68115        0.75614        0.30069
H         -1.53522       -1.42047        2.29205
H         -1.50510       -2.61132        3.58792
H         -2.71539       -0.73615        4.58072
H         -1.59648        0.97658        2.77518
H         -1.88938        1.58006        4.41714
H          0.71410        1.28891        3.21081
H          0.34289        1.68649        4.88561
H          1.50464       -0.49051        5.09515
H         -0.81338       -0.03865        6.27101
H         -0.67855       -1.77385        5.89110
H          2.10362       -2.73520        4.02210
H          0.61435       -3.20309        4.81821
H          1.34979       -4.92546        3.23945
H         -0.20806       -4.27782        2.72836
H          2.30447       -3.40522        1.71709

--Link1--
%chk=JID_4255.chk
%mem=8GB
%nprocshared=4
# B3LYP/6-311++G(d,p) empiricaldispersion=gd3bj scf=xqc pop=npa geom=check

CID_117100316_JID_4255_Energie_neutraal

0 1

--Link1--
%chk=JID_4255.chk
%mem=8GB
%nprocshared=4
# B3LYP/6-311++G(d,p) empiricaldispersion=gd3bj scf=xqc pop=npa geom=check

CID_117100316_JID_4255_Energie_kation

1 2

--Link1--
%chk=JID_4255.chk
%mem=8GB
%nprocshared=4
# B3LYP/6-311++G(d,p) empiricaldispersion=gd3bj scf=xqc pop=npa geom=check

CID_117100316_JID_4255_Energie_anion

-1 2
