%chk=JID_10853.chk
%mem=8GB
%nprocshared=4
# opt freq B3LYP/6-31G(d) empiricaldispersion=gd3bj scf=xqc

CID_115788212_JID_10853_neutraal

0 1
C          2.24500        0.03300       -0.00400
C          1.01719        0.30568        0.92069
C         -0.11803        0.12502       -0.01718
C          0.31186        0.13879       -1.31427
C          1.77492        0.31084       -1.46465
S         -0.90114       -0.05448       -2.44256
C         -2.07318       -0.23981       -1.18022
C         -1.50922       -0.07675        0.08139
C         -3.44454       -0.55755       -1.55437
O         -3.98569       -0.05865       -2.54323
C         -4.25835       -1.46528       -0.61087
C         -3.49413       -2.69572       -0.08258
C         -3.97384       -4.00315       -0.69396
O         -4.22684       -3.80714       -2.07534
C         -5.38748       -3.00065       -2.35137
C         -5.57976       -1.91001       -1.26751
C         -6.62719       -3.90777       -2.44067
C         -6.44742       -4.79692       -3.66052
S         -5.82003       -3.68742       -4.93976
C         -5.22944       -2.41355       -3.77034
H          2.52942       -1.02414        0.08474
H          3.11697        0.63296        0.27401
H          0.99058       -0.39175        1.76216
H          1.04247        1.33345        1.29797
H          2.01953        1.33590       -1.76061
H          2.22644       -0.39516       -2.16683
H         -2.06566       -0.13055        1.00866
H         -4.51062       -0.82388        0.24527
H         -2.42131       -2.61955       -0.28082
H         -3.59791       -2.75971        1.00747
H         -3.19684       -4.76791       -0.59189
H         -4.86698       -4.38440       -0.18684
H         -6.21146       -2.31669       -0.46456
H         -6.14125       -1.05639       -1.66627
H         -6.74240       -4.53588       -1.55073
H         -7.54096       -3.30698       -2.53941
H         -7.38861       -5.25920       -3.96931
H         -5.71340       -5.58778       -3.47671
H         -5.85196       -1.52649       -3.92036
H         -4.18909       -2.17994       -4.01254

--Link1--
%chk=JID_10853.chk
%mem=8GB
%nprocshared=4
# B3LYP/6-311++G(d,p) empiricaldispersion=gd3bj scf=xqc pop=npa geom=check

CID_115788212_JID_10853_Energie_neutraal

0 1

--Link1--
%chk=JID_10853.chk
%mem=8GB
%nprocshared=4
# B3LYP/6-311++G(d,p) empiricaldispersion=gd3bj scf=xqc pop=npa geom=check

CID_115788212_JID_10853_Energie_kation

1 2

--Link1--
%chk=JID_10853.chk
%mem=8GB
%nprocshared=4
# B3LYP/6-311++G(d,p) empiricaldispersion=gd3bj scf=xqc pop=npa geom=check

CID_115788212_JID_10853_Energie_anion

-1 2
