%chk=JID_9001.chk
%mem=8GB
%nprocshared=4
# opt freq B3LYP/6-31G(d) empiricaldispersion=gd3bj scf=xqc

CID_43462621_JID_9001_neutraal

0 1
C          2.19400       -0.06300        0.00100
C          0.80832       -0.42197        0.37919
C          0.04170       -1.57721        0.31454
C         -1.25889       -1.18991        0.75988
C         -1.18169        0.13453        1.10977
O          0.06822        0.60636        0.88624
C          0.41850       -2.89899       -0.16598
O         -0.39866       -3.64820       -0.69560
C          1.80919       -3.38632        0.00003
C          2.51818       -3.17585        1.18809
C          3.83057       -3.64008        1.31235
C          4.40899       -4.38619        0.27437
C          3.69661       -4.59557       -0.90955
C          2.39639       -4.10668       -1.04576
O          5.65913       -4.95096        0.30269
C          6.03034       -5.44671        1.59003
C          6.64373       -4.34893        2.44200
C          5.84380       -3.06021        2.36340
O          4.44415       -3.31351        2.49581
H          2.25613        0.99104       -0.28915
H          2.87447       -0.22122        0.84261
H          2.53977       -0.65707       -0.84977
H         -2.13724       -1.81863        0.81908
H         -1.89112        0.85022        1.50134
H          2.06669       -2.64054        2.02007
H          4.14786       -5.16449       -1.71910
H          1.84153       -4.29545       -1.96291
H          6.77341       -6.23693        1.43381
H          5.17949       -5.92765        2.09186
H          6.69780       -4.70134        3.47843
H          7.66955       -4.14227        2.11592
H          6.13644       -2.40539        3.19200
H          6.06047       -2.49835        1.44445

--Link1--
%chk=JID_9001.chk
%mem=8GB
%nprocshared=4
# B3LYP/6-311++G(d,p) empiricaldispersion=gd3bj scf=xqc pop=npa geom=check

CID_43462621_JID_9001_Energie_neutraal

0 1

--Link1--
%chk=JID_9001.chk
%mem=8GB
%nprocshared=4
# B3LYP/6-311++G(d,p) empiricaldispersion=gd3bj scf=xqc pop=npa geom=check

CID_43462621_JID_9001_Energie_kation

1 2

--Link1--
%chk=JID_9001.chk
%mem=8GB
%nprocshared=4
# B3LYP/6-311++G(d,p) empiricaldispersion=gd3bj scf=xqc pop=npa geom=check

CID_43462621_JID_9001_Energie_anion

-1 2
