%chk=JID_2512.chk
%mem=8GB
%nprocshared=4
# opt freq B3LYP/6-31G(d) empiricaldispersion=gd3bj scf=xqc

CID_123999506_JID_2512_neutraal

0 1
C          0.92455        0.01316       -0.06429
C          0.83584        0.73028       -1.40463
C          1.24365       -0.15219       -2.57145
C          0.30582       -0.57898       -3.44130
C          0.50879       -1.41335       -4.60932
C         -0.43835       -1.87361       -5.45478
C         -0.04504       -2.65967       -6.69515
C         -0.36765       -4.12436       -6.56791
C         -1.17608       -4.79662       -7.39806
C         -1.86719       -1.62525       -5.32662
C         -2.61085       -2.01540       -4.28362
C          2.71969       -0.44512       -2.64971
H          0.30708       -0.89126       -0.05797
H          0.57049        0.66993        0.73697
H          1.95440       -0.27283        0.17170
H         -0.19121        1.09398       -1.53463
H          1.47004        1.62496       -1.38704
H         -0.72312       -0.26942       -3.26437
H          1.53878       -1.67673       -4.83347
H         -0.53136       -2.22326       -7.57758
H          1.03338       -2.57091       -6.88018
H          0.10019       -4.65603       -5.74178
H         -1.36794       -5.85464       -7.24860
H         -1.66756       -4.31033       -8.23471
H         -2.34942       -1.14237       -6.17406
H         -3.67903       -1.82742       -4.26417
H         -2.17629       -2.53873       -3.43743
H          3.29218        0.48571       -2.57355
H          3.02108       -1.10268       -1.82834
H          3.02555       -0.92361       -3.58196

--Link1--
%chk=JID_2512.chk
%mem=8GB
%nprocshared=4
# B3LYP/6-311++G(d,p) empiricaldispersion=gd3bj scf=xqc pop=npa geom=check

CID_123999506_JID_2512_Energie_neutraal

0 1

--Link1--
%chk=JID_2512.chk
%mem=8GB
%nprocshared=4
# B3LYP/6-311++G(d,p) empiricaldispersion=gd3bj scf=xqc pop=npa geom=check

CID_123999506_JID_2512_Energie_kation

1 2

--Link1--
%chk=JID_2512.chk
%mem=8GB
%nprocshared=4
# B3LYP/6-311++G(d,p) empiricaldispersion=gd3bj scf=xqc pop=npa geom=check

CID_123999506_JID_2512_Energie_anion

-1 2
