%chk=JID_4219.chk
%mem=8GB
%nprocshared=4
# opt freq B3LYP/6-31G(d) empiricaldispersion=gd3bj scf=xqc

CID_101282408_JID_4219_neutraal

0 1
C          1.03601        0.05336        0.07653
C          0.80938        0.07419        1.55147
C         -0.16868        0.77734        2.14076
C         -0.40163        0.81174        3.62330
C         -0.04657        2.16131        4.25579
C         -0.78693        3.38098        3.68847
C         -2.31673        3.29894        3.70611
C         -2.87978        3.16031        5.09156
C         -3.60731        4.11196        5.69314
C         -4.11779        3.96704        7.03450
C         -4.84615        4.91916        7.63592
C         -5.36370        4.81111        9.03990
C         -4.85704        5.98286        9.86494
N         -4.43672        6.95493       10.54937
H          0.31720        0.67722       -0.46410
H          0.94914       -0.97066       -0.29934
H          2.04222        0.41868       -0.15057
H          1.49578       -0.51539        2.15512
H         -0.85213        1.35902        1.52550
H         -1.44961        0.56011        3.82123
H          0.19170        0.03233        4.11800
H         -0.22580        2.09681        5.33594
H          1.03157        2.33511        4.14208
H         -0.46881        4.26668        4.25401
H         -0.46033        3.55394        2.65573
H         -2.71335        4.20224        3.22534
H         -2.66550        2.45797        3.09697
H         -2.67335        2.22516        5.60745
H         -3.81497        5.04378        5.17021
H         -3.87575        3.04726        7.56417
H         -5.08759        5.83727        7.10185
H         -6.45875        4.83190        9.02672
H         -5.05156        3.87657        9.51885

--Link1--
%chk=JID_4219.chk
%mem=8GB
%nprocshared=4
# B3LYP/6-311++G(d,p) empiricaldispersion=gd3bj scf=xqc pop=npa geom=check

CID_101282408_JID_4219_Energie_neutraal

0 1

--Link1--
%chk=JID_4219.chk
%mem=8GB
%nprocshared=4
# B3LYP/6-311++G(d,p) empiricaldispersion=gd3bj scf=xqc pop=npa geom=check

CID_101282408_JID_4219_Energie_kation

1 2

--Link1--
%chk=JID_4219.chk
%mem=8GB
%nprocshared=4
# B3LYP/6-311++G(d,p) empiricaldispersion=gd3bj scf=xqc pop=npa geom=check

CID_101282408_JID_4219_Energie_anion

-1 2
