%chk=JID_7119.chk
%mem=8GB
%nprocshared=4
# opt freq B3LYP/6-31G(d) empiricaldispersion=gd3bj scf=xqc

CID_18072933_JID_7119_neutraal

0 1
C          0.97022       -0.08290        0.04735
C          0.44387       -0.40065       -1.35567
C          1.44838       -1.29337       -2.09328
N         -0.95540       -0.84811       -1.41609
C         -1.58976       -0.75705       -2.74163
C         -1.50866       -1.97594       -3.68740
N         -2.55428       -2.96244       -3.46258
C         -3.17855       -3.74274       -4.39418
O         -3.78739       -4.74301       -4.00560
C         -3.10043       -3.35193       -5.88638
C         -3.81705       -2.03386       -6.18340
C         -4.91349       -2.38935       -7.17522
C         -5.13958       -3.86630       -6.94438
N         -3.78482       -4.36971       -6.72281
C         -1.53576       -1.83118       -0.49844
C         -0.75151       -3.13453       -0.34453
C         -1.85902       -1.23156        0.87643
H          1.11117       -0.98073        0.65435
H          0.30135        0.60687        0.57246
H          1.94499        0.41512       -0.01731
H          0.47568        0.57022       -1.87053
H          1.46213       -2.31568       -1.70874
H          1.24014       -1.32671       -3.16625
H          2.46413       -0.89411       -1.98968
H         -2.64472       -0.48523       -2.60215
H         -1.15656        0.09954       -3.27468
H         -1.56498       -1.61442       -4.71684
H         -0.55679       -2.50454       -3.59593
H         -2.61420       -3.37505       -2.54053
H         -2.04555       -3.32004       -6.17791
H         -4.26011       -1.59442       -5.28237
H         -3.13884       -1.29355       -6.62113
H         -5.81972       -1.79663       -7.01966
H         -4.56258       -2.21092       -8.19922
H         -5.76575       -4.03296       -6.06012
H         -5.61247       -4.35073       -7.80300
H         -3.83655       -5.24301       -6.18745
H         -2.52370       -2.10700       -0.88673
H          0.19929       -2.98943        0.17516
H         -1.33161       -3.85726        0.24068
H         -0.54709       -3.59741       -1.31449
H         -2.34957       -0.25701        0.77701
H         -2.55163       -1.88781        1.41675
H         -0.97740       -1.11528        1.51044

--Link1--
%chk=JID_7119.chk
%mem=8GB
%nprocshared=4
# B3LYP/6-311++G(d,p) empiricaldispersion=gd3bj scf=xqc pop=npa geom=check

CID_18072933_JID_7119_Energie_neutraal

0 1

--Link1--
%chk=JID_7119.chk
%mem=8GB
%nprocshared=4
# B3LYP/6-311++G(d,p) empiricaldispersion=gd3bj scf=xqc pop=npa geom=check

CID_18072933_JID_7119_Energie_kation

1 2

--Link1--
%chk=JID_7119.chk
%mem=8GB
%nprocshared=4
# B3LYP/6-311++G(d,p) empiricaldispersion=gd3bj scf=xqc pop=npa geom=check

CID_18072933_JID_7119_Energie_anion

-1 2
