%chk=JID_7593.chk
%mem=8GB
%nprocshared=4
# opt freq B3LYP/6-31G(d) empiricaldispersion=gd3bj scf=xqc

CID_107433759_JID_7593_neutraal

0 1
C          2.19200       -0.00900       -0.03500
N          1.01447        0.25774        0.75998
C          0.48660       -0.65003        1.64540
C         -0.68347       -0.13042        2.14557
C         -0.85671        1.13976        1.55346
C          0.22946        1.39166        0.72561
C          0.41756        2.57678       -0.08449
O         -0.39006        2.87744       -0.96294
N          1.49811        3.41833        0.19352
C          2.42842        3.25252        1.31964
C          3.89249        3.06627        0.90529
O          4.82201        3.13952        1.70356
N          4.12676        2.70401       -0.38856
C          1.47873        4.72946       -0.47348
C          1.78859        4.71079       -1.96616
O          1.67525        5.66091       -2.72604
O          2.32774        3.55510       -2.41774
H          3.07087        0.18308        0.58364
H          2.17529       -1.05717       -0.34667
H          2.18809        0.62513       -0.92358
H          0.96966       -1.60186        1.82662
H         -1.34836       -0.62013        2.84537
H         -1.68797        1.81694        1.70865
H          2.35758        4.14887        1.94590
H          2.15923        2.39778        1.94261
H          3.40439        2.79528       -1.10028
H          5.08921        2.63399       -0.69130
H          0.48457        5.16963       -0.33711
H          2.22188        5.38068       -0.00090
H          2.38245        3.71208       -3.38662

--Link1--
%chk=JID_7593.chk
%mem=8GB
%nprocshared=4
# B3LYP/6-311++G(d,p) empiricaldispersion=gd3bj scf=xqc pop=npa geom=check

CID_107433759_JID_7593_Energie_neutraal

0 1

--Link1--
%chk=JID_7593.chk
%mem=8GB
%nprocshared=4
# B3LYP/6-311++G(d,p) empiricaldispersion=gd3bj scf=xqc pop=npa geom=check

CID_107433759_JID_7593_Energie_kation

1 2

--Link1--
%chk=JID_7593.chk
%mem=8GB
%nprocshared=4
# B3LYP/6-311++G(d,p) empiricaldispersion=gd3bj scf=xqc pop=npa geom=check

CID_107433759_JID_7593_Energie_anion

-1 2
