%chk=JID_4221.chk
%mem=8GB
%nprocshared=4
# opt freq B3LYP/6-31G(d) empiricaldispersion=gd3bj scf=xqc

CID_116679457_JID_4221_neutraal

0 1
C          1.07368       -0.05442       -0.04011
N          0.62631        1.29039       -0.39721
C         -0.84234        1.39556       -0.39193
C         -1.63520        0.86745        0.81645
C         -1.45723        1.70028        2.07458
C         -1.95130        3.16403        2.06438
N         -2.46430        2.96109        3.43830
C         -2.53767        1.50742        3.16330
C          1.37235        2.38786        0.26172
C          1.07888        3.75657       -0.38959
C          1.91965        4.86114        0.23791
O          3.30815        4.56476        0.14382
C          3.64045        3.36499        0.83259
C          2.90326        2.17262        0.23782
H          0.45538       -0.81796       -0.52705
H          1.04308       -0.22394        1.04154
H          2.09141       -0.24225       -0.39672
H         -1.17193        2.41167       -0.62516
H         -1.18497        0.81214       -1.25847
H         -2.69526        0.86204        0.52945
H         -1.38280       -0.17848        1.02373
H         -0.45359        1.58777        2.50535
H         -1.17259        3.92689        1.97782
H         -2.74130        3.38390        1.33658
H         -1.78168        3.19572        4.15983
H         -3.52154        1.18849        2.79921
H         -2.25291        0.86742        4.00359
H          1.08106        2.44282        1.31514
H          1.30667        3.69986       -1.46198
H          0.02804        4.04074       -0.28773
H          1.74447        5.80444       -0.28939
H          1.64850        5.01766        1.28888
H          3.41538        3.48014        1.89957
H          4.72108        3.21617        0.73977
H          3.18808        1.28090        0.80659
H          3.23191        2.03209       -0.80015

--Link1--
%chk=JID_4221.chk
%mem=8GB
%nprocshared=4
# B3LYP/6-311++G(d,p) empiricaldispersion=gd3bj scf=xqc pop=npa geom=check

CID_116679457_JID_4221_Energie_neutraal

0 1

--Link1--
%chk=JID_4221.chk
%mem=8GB
%nprocshared=4
# B3LYP/6-311++G(d,p) empiricaldispersion=gd3bj scf=xqc pop=npa geom=check

CID_116679457_JID_4221_Energie_kation

1 2

--Link1--
%chk=JID_4221.chk
%mem=8GB
%nprocshared=4
# B3LYP/6-311++G(d,p) empiricaldispersion=gd3bj scf=xqc pop=npa geom=check

CID_116679457_JID_4221_Energie_anion

-1 2
