%chk=JID_7296.chk
%mem=8GB
%nprocshared=4
# opt freq B3LYP/6-31G(d) empiricaldispersion=gd3bj scf=xqc

CID_75417642_JID_7296_neutraal

0 1
C         -2.13100       -0.04600       -0.06100
N         -0.69452       -0.10146        0.04176
C          0.10514       -1.18307       -0.18133
C          1.39726       -0.77790        0.08860
C          1.25216        0.58026        0.45942
N         -0.01531        0.99420        0.41587
C          2.63284       -1.60984        0.05112
C          3.61442       -1.25491       -1.07037
C          4.36914        0.05558       -0.85334
O          4.98151        0.02616        0.44446
C          5.31503        1.23870        0.96627
O          5.21535        2.29784        0.36346
C          5.91819        1.08025        2.35093
C          5.22196        0.04832        3.21746
C          4.08100        0.83815        3.81700
O          4.57381        2.16767        4.00106
C          5.73664        2.34603        3.17283
H         -2.52934        0.42332        0.84221
H         -2.38827        0.54243       -0.94504
H         -2.52756       -1.05995       -0.15540
H         -0.30090       -2.13797       -0.48462
H          2.01405        1.28755        0.76221
H          3.12560       -1.56602        1.02910
H          2.33861       -2.65941       -0.08331
H          4.35522       -2.06348       -1.11947
H          3.10250       -1.22739       -2.03944
H          5.15936        0.15154       -1.60640
H          3.68953        0.90768       -0.95511
H          6.97774        0.84727        2.20008
H          5.90428       -0.26543        4.01734
H          4.87629       -0.85302        2.70600
H          3.22355        0.88409        3.13747
H          3.74526        0.43206        4.77524
H          6.58713        2.48663        3.84926
H          5.61714        3.26436        2.59159

--Link1--
%chk=JID_7296.chk
%mem=8GB
%nprocshared=4
# B3LYP/6-311++G(d,p) empiricaldispersion=gd3bj scf=xqc pop=npa geom=check

CID_75417642_JID_7296_Energie_neutraal

0 1

--Link1--
%chk=JID_7296.chk
%mem=8GB
%nprocshared=4
# B3LYP/6-311++G(d,p) empiricaldispersion=gd3bj scf=xqc pop=npa geom=check

CID_75417642_JID_7296_Energie_kation

1 2

--Link1--
%chk=JID_7296.chk
%mem=8GB
%nprocshared=4
# B3LYP/6-311++G(d,p) empiricaldispersion=gd3bj scf=xqc pop=npa geom=check

CID_75417642_JID_7296_Energie_anion

-1 2
