%chk=JID_6273.chk
%mem=8GB
%nprocshared=4
# opt freq B3LYP/6-31G(d) empiricaldispersion=gd3bj scf=xqc

CID_102951760_JID_6273_neutraal

0 1
C          1.05839        0.02633       -0.07680
N          0.98233       -0.22919        1.34364
C          0.69173        0.62967        2.36034
O          0.75707        0.21714        3.51956
C          0.33586        2.06785        2.06452
C          1.55011        2.98702        2.15772
N          2.45037        2.81587        1.00823
C          3.40075        3.93678        0.94781
C          4.55886        3.51711        0.01084
C          3.81161        4.16217       -1.16893
C          2.96726        4.98868       -0.14366
C          1.47993        5.11352       -0.51393
C          1.29115        6.09028       -1.67331
C          1.86848        7.46309       -1.34429
C          3.33818        7.36281       -0.94997
C          3.54764        6.37894        0.19926
H          0.46811        0.89159       -0.37637
H          0.68922       -0.86069       -0.59804
H          2.10687        0.18151       -0.34237
H          1.24144       -1.15265        1.67091
H         -0.18035        2.17297        1.10713
H         -0.39867        2.37000        2.82247
H          1.18372        4.01920        2.20058
H          2.10206        2.79924        3.08688
H          2.91029        1.90937        1.11344
H          3.73420        4.32246        1.91707
H          4.77221        2.44846       -0.09218
H          5.50443        4.02185        0.24523
H          3.23095        3.43906       -1.75505
H          4.44176        4.72848       -1.86011
H          0.90731        5.46820        0.35157
H          1.05751        4.14464       -0.80403
H          0.22346        6.18721       -1.90047
H          1.77645        5.69725       -2.57488
H          1.76290        8.12576       -2.21054
H          1.29795        7.91482       -0.52355
H          3.92592        7.05090       -1.82128
H          3.70711        8.35212       -0.65642
H          3.05989        6.76571        1.10326
H          4.61946        6.31698        0.42223

--Link1--
%chk=JID_6273.chk
%mem=8GB
%nprocshared=4
# B3LYP/6-311++G(d,p) empiricaldispersion=gd3bj scf=xqc pop=npa geom=check

CID_102951760_JID_6273_Energie_neutraal

0 1

--Link1--
%chk=JID_6273.chk
%mem=8GB
%nprocshared=4
# B3LYP/6-311++G(d,p) empiricaldispersion=gd3bj scf=xqc pop=npa geom=check

CID_102951760_JID_6273_Energie_kation

1 2

--Link1--
%chk=JID_6273.chk
%mem=8GB
%nprocshared=4
# B3LYP/6-311++G(d,p) empiricaldispersion=gd3bj scf=xqc pop=npa geom=check

CID_102951760_JID_6273_Energie_anion

-1 2
