%chk=JID_5363.chk
%mem=8GB
%nprocshared=4
# opt freq B3LYP/6-31G(d) empiricaldispersion=gd3bj scf=xqc

CID_104758685_JID_5363_neutraal

0 1
C         -2.51700       -1.16700        0.01900
C         -1.17176       -0.65194       -0.38224
C         -0.08091       -1.51077       -0.53103
C          1.14522       -1.01206       -0.96935
C          1.25661        0.38350       -1.14615
N          0.21047        1.22674       -1.05031
C         -0.97465        0.69155       -0.67965
N          2.48956        0.98805       -1.48088
C          3.36356        1.06885       -0.29312
C          4.66464        1.81464       -0.63240
O          4.77849        3.11275       -0.04888
C          4.10353        4.22257       -0.64015
C          4.16071        4.27853       -2.16254
C          2.68760        4.37529       -0.09867
N          2.26690       -1.86634       -1.04924
H         -3.08813       -1.45652       -0.86842
H         -2.42184       -2.03699        0.67722
H         -3.07956       -0.40472        0.56827
H         -0.18829       -2.56986       -0.31475
H         -1.79090        1.40666       -0.61425
H          2.18362        1.93386       -1.71027
H          2.84826        1.55663        0.54295
H          3.63878        0.05823        0.02691
H          5.48693        1.24309       -0.18518
H          4.87494        1.83889       -1.70652
H          4.65947        5.09615       -0.27708
H          3.55535        3.49269       -2.62310
H          3.78850        5.24058       -2.52955
H          5.18923        4.14832       -2.51498
H          2.68239        4.29080        0.99314
H          2.26996        5.34916       -0.37431
H          2.01301        3.60898       -0.48218
H          2.02654       -2.80503       -1.34886
H          2.96540       -1.43478       -1.65683

--Link1--
%chk=JID_5363.chk
%mem=8GB
%nprocshared=4
# B3LYP/6-311++G(d,p) empiricaldispersion=gd3bj scf=xqc pop=npa geom=check

CID_104758685_JID_5363_Energie_neutraal

0 1

--Link1--
%chk=JID_5363.chk
%mem=8GB
%nprocshared=4
# B3LYP/6-311++G(d,p) empiricaldispersion=gd3bj scf=xqc pop=npa geom=check

CID_104758685_JID_5363_Energie_kation

1 2

--Link1--
%chk=JID_5363.chk
%mem=8GB
%nprocshared=4
# B3LYP/6-311++G(d,p) empiricaldispersion=gd3bj scf=xqc pop=npa geom=check

CID_104758685_JID_5363_Energie_anion

-1 2
