%chk=JID_4198.chk
%mem=8GB
%nprocshared=4
# opt freq B3LYP/6-31G(d) empiricaldispersion=gd3bj scf=xqc

CID_148182215_JID_4198_neutraal

0 1
C          1.06246       -0.03426        0.07018
C          0.07364       -1.02383       -0.55523
C         -1.29330       -1.08550        0.15750
C         -2.06531        0.21906        0.38637
C         -2.50222        0.93580       -0.88840
C         -1.44056        1.85671       -1.40926
C         -0.46476        1.52930       -2.26755
C         -0.27668        0.19242       -2.83471
C         -0.04344       -0.97077       -2.07687
C          0.07923       -2.19793       -2.77030
C          0.00433       -2.27793       -4.16772
C         -0.21047       -1.11177       -4.89728
C         -0.34537        0.10897       -4.23656
C          0.12187       -3.60732       -4.85166
H          1.23998       -0.29436        1.11997
H          0.71899        1.00099        0.05561
H          2.02723       -0.07092       -0.44805
H          0.53433       -2.00033       -0.33775
H         -1.12479       -1.52520        1.15055
H         -1.94732       -1.79333       -0.36939
H         -1.49358        0.88978        1.03913
H         -2.97219       -0.04201        0.94796
H         -2.83176        0.22018       -1.65049
H         -3.38237        1.55190       -0.66398
H         -1.47745        2.88117       -1.04379
H          0.24591        2.28499       -2.59362
H          0.23866       -3.11781       -2.20831
H         -0.28238       -1.14035       -5.98158
H         -0.52537        1.00479       -4.82804
H          1.01466       -4.13684       -4.50339
H         -0.76281       -4.21664       -4.64142
H          0.20841       -3.49313       -5.93726

--Link1--
%chk=JID_4198.chk
%mem=8GB
%nprocshared=4
# B3LYP/6-311++G(d,p) empiricaldispersion=gd3bj scf=xqc pop=npa geom=check

CID_148182215_JID_4198_Energie_neutraal

0 1

--Link1--
%chk=JID_4198.chk
%mem=8GB
%nprocshared=4
# B3LYP/6-311++G(d,p) empiricaldispersion=gd3bj scf=xqc pop=npa geom=check

CID_148182215_JID_4198_Energie_kation

1 2

--Link1--
%chk=JID_4198.chk
%mem=8GB
%nprocshared=4
# B3LYP/6-311++G(d,p) empiricaldispersion=gd3bj scf=xqc pop=npa geom=check

CID_148182215_JID_4198_Energie_anion

-1 2
