%chk=JID_8726.chk
%mem=8GB
%nprocshared=4
# opt freq B3LYP/6-31G(d) empiricaldispersion=gd3bj scf=xqc

CID_82477103_JID_8726_neutraal

0 1
C         -1.83700        0.00000        0.00400
C         -1.06677        1.06376        0.45566
C          0.28141        0.86580        0.75721
C          0.89281       -0.38365        0.57695
C          0.09703       -1.47436        0.17889
C         -1.26012       -1.25988       -0.13193
C          0.62231       -2.89462        0.13254
C          0.47898       -3.62599        1.47193
C         -0.93095       -4.01141        1.75397
N         -1.74019       -3.55971        2.69358
C         -2.91472       -4.20710        2.43872
C         -2.76452       -5.05637        1.35505
O         -1.48224       -4.94676        0.90947
C         -3.78891       -5.84450        0.85737
C         -4.99815       -5.70484        1.54016
C         -5.08616       -4.82914        2.62431
N         -4.07997       -4.06482        3.11178
N          2.21744       -0.54874        1.01626
H         -2.89097        0.14350       -0.21739
H         -1.51641        2.04302        0.59357
H          0.85656        1.70400        1.14213
H         -1.88928       -2.08924       -0.44844
H          0.10980       -3.44483       -0.66816
H          1.67605       -2.88961       -0.16776
H          1.08277       -4.54101        1.44317
H          0.86564       -3.01460        2.29549
H         -3.65723       -6.50295        0.01023
H         -5.87085       -6.27287        1.23113
H         -6.02918       -4.71674        3.15625
H          2.72578       -1.27763        0.53025
H          2.74315        0.32035        1.02656

--Link1--
%chk=JID_8726.chk
%mem=8GB
%nprocshared=4
# B3LYP/6-311++G(d,p) empiricaldispersion=gd3bj scf=xqc pop=npa geom=check

CID_82477103_JID_8726_Energie_neutraal

0 1

--Link1--
%chk=JID_8726.chk
%mem=8GB
%nprocshared=4
# B3LYP/6-311++G(d,p) empiricaldispersion=gd3bj scf=xqc pop=npa geom=check

CID_82477103_JID_8726_Energie_kation

1 2

--Link1--
%chk=JID_8726.chk
%mem=8GB
%nprocshared=4
# B3LYP/6-311++G(d,p) empiricaldispersion=gd3bj scf=xqc pop=npa geom=check

CID_82477103_JID_8726_Energie_anion

-1 2
