%chk=JID_1162.chk
%mem=8GB
%nprocshared=4
# opt freq B3LYP/6-31G(d) empiricaldispersion=gd3bj scf=xqc

CID_153363983_JID_1162_neutraal

0 1
C          1.02357       -0.07714       -0.05911
C          0.68828       -1.55197        0.03972
N          0.14486       -2.08636        1.08102
C         -0.24614       -1.30170        2.24877
C          0.46002       -1.84233        3.48119
C          1.92839       -1.53446        3.40502
O          2.48309       -0.70770        4.12351
C          1.03436       -2.46648       -1.16372
C          0.41152       -1.90121       -2.44949
C          2.56089       -2.55313       -1.29991
C          0.48220       -3.89081       -0.95623
H          1.63512        0.22361        0.79595
H          0.09770        0.50433       -0.07764
H          1.59197        0.15160       -0.96173
H         -0.06483       -0.22761        2.15193
H         -1.32742       -1.42050        2.38299
H          0.05279       -1.37653        4.38476
H          0.34216       -2.92689        3.57392
H          2.49732       -2.08953        2.63947
H          0.85250       -0.94088       -2.73518
H          0.55723       -2.58430       -3.29411
H         -0.66574       -1.74152       -2.32609
H          3.01691       -2.91994       -0.37298
H          2.84894       -3.23282       -2.10975
H          3.00827       -1.57732       -1.51581
H          0.90897       -4.36120       -0.06282
H         -0.60759       -3.88085       -0.83721
H          0.71660       -4.53599       -1.81077

--Link1--
%chk=JID_1162.chk
%mem=8GB
%nprocshared=4
# B3LYP/6-311++G(d,p) empiricaldispersion=gd3bj scf=xqc pop=npa geom=check

CID_153363983_JID_1162_Energie_neutraal

0 1

--Link1--
%chk=JID_1162.chk
%mem=8GB
%nprocshared=4
# B3LYP/6-311++G(d,p) empiricaldispersion=gd3bj scf=xqc pop=npa geom=check

CID_153363983_JID_1162_Energie_kation

1 2

--Link1--
%chk=JID_1162.chk
%mem=8GB
%nprocshared=4
# B3LYP/6-311++G(d,p) empiricaldispersion=gd3bj scf=xqc pop=npa geom=check

CID_153363983_JID_1162_Energie_anion

-1 2
