%chk=JID_769.chk
%mem=8GB
%nprocshared=4
# opt freq B3LYP/6-31G(d) empiricaldispersion=gd3bj scf=xqc

CID_148427721_JID_769_neutraal

0 1
C          0.92106       -0.04764        0.03870
C          0.48835        0.48900       -1.31899
C         -0.39536        1.74461       -1.21706
C         -0.94088        2.15559       -2.58676
C          0.12418        3.08634       -3.14804
C          0.57374        3.92478       -1.93486
C          0.36752        2.98683       -0.71566
C         -0.36213        5.14841       -1.78780
C          2.01536        4.47196       -2.06578
S          3.35111        3.25242       -2.30151
H          0.05280       -0.25929        0.67082
H          1.56871        0.65634        0.56817
H          1.48023       -0.98025       -0.08870
H         -0.07263       -0.30223       -1.83170
H          1.37784        0.68682       -1.92692
H         -1.23235        1.51940       -0.54456
H         -1.13203        1.30532       -3.24892
H         -1.88766        2.69488       -2.46528
H         -0.26939        3.70025       -3.96522
H          0.93901        2.48461       -3.56241
H         -0.23336        3.48510        0.05601
H          1.30713        2.72264       -0.22598
H         -0.08947        5.74722       -0.91113
H         -0.30044        5.79894       -2.66765
H         -1.40966        4.85168       -1.66915
H          2.06842        5.15409       -2.92214
H          2.27274        5.05596       -1.17468
H          3.28774        2.69658       -1.08367

--Link1--
%chk=JID_769.chk
%mem=8GB
%nprocshared=4
# B3LYP/6-311++G(d,p) empiricaldispersion=gd3bj scf=xqc pop=npa geom=check

CID_148427721_JID_769_Energie_neutraal

0 1

--Link1--
%chk=JID_769.chk
%mem=8GB
%nprocshared=4
# B3LYP/6-311++G(d,p) empiricaldispersion=gd3bj scf=xqc pop=npa geom=check

CID_148427721_JID_769_Energie_kation

1 2

--Link1--
%chk=JID_769.chk
%mem=8GB
%nprocshared=4
# B3LYP/6-311++G(d,p) empiricaldispersion=gd3bj scf=xqc pop=npa geom=check

CID_148427721_JID_769_Energie_anion

-1 2
