%chk=JID_3454.chk
%mem=8GB
%nprocshared=4
# opt freq B3LYP/6-31G(d) empiricaldispersion=gd3bj scf=xqc

CID_116247542_JID_3454_neutraal

0 1
C          1.03577        0.06302       -0.06891
C          0.70359        1.41252       -0.67461
O          1.03939        1.51669       -2.05380
C          2.41898        1.39014       -2.40149
C          3.21607        2.73247       -2.52116
C          3.15246        3.55088       -1.22018
C          4.73316        2.35052       -2.73107
N          5.03449        1.84546       -4.07910
N          2.86378        3.58443       -3.69006
C          1.46508        3.67264       -4.11129
C          0.49705        4.48584       -3.23425
C          0.92166        5.91420       -3.01257
C          0.24063        6.97808       -3.45384
H          0.72621       -0.75209       -0.73050
H          0.53526       -0.05468        0.89717
H          2.11018       -0.04446        0.10650
H         -0.38019        1.56152       -0.61543
H          1.16034        2.21527       -0.09364
H          2.92956        0.70761       -1.71525
H          2.43260        0.88463       -3.37495
H          3.47083        2.94382       -0.36455
H          3.81701        4.42205       -1.26170
H          2.15178        3.92894       -1.00638
H          5.36225        3.23607       -2.57638
H          5.05306        1.60829       -1.99009
H          4.55077        0.96132       -4.22630
H          4.55755        2.49056       -4.72131
H          3.24948        4.52031       -3.57045
H          1.47895        4.14642       -5.10204
H          1.05132        2.67612       -4.29764
H         -0.48962        4.46389       -3.71521
H          0.35884        4.00863       -2.26055
H          1.82654        6.07647       -2.43180
H          0.58934        7.98573       -3.24758
H         -0.67686        6.87344       -4.02523

--Link1--
%chk=JID_3454.chk
%mem=8GB
%nprocshared=4
# B3LYP/6-311++G(d,p) empiricaldispersion=gd3bj scf=xqc pop=npa geom=check

CID_116247542_JID_3454_Energie_neutraal

0 1

--Link1--
%chk=JID_3454.chk
%mem=8GB
%nprocshared=4
# B3LYP/6-311++G(d,p) empiricaldispersion=gd3bj scf=xqc pop=npa geom=check

CID_116247542_JID_3454_Energie_kation

1 2

--Link1--
%chk=JID_3454.chk
%mem=8GB
%nprocshared=4
# B3LYP/6-311++G(d,p) empiricaldispersion=gd3bj scf=xqc pop=npa geom=check

CID_116247542_JID_3454_Energie_anion

-1 2
