%chk=JID_10460.chk
%mem=8GB
%nprocshared=4
# opt freq B3LYP/6-31G(d) empiricaldispersion=gd3bj scf=xqc

CID_60939027_JID_10460_neutraal

0 1
C          1.06698        0.04220        0.06110
C          0.52221        1.00323       -1.00539
C          1.01165        0.76143       -2.42800
C          1.27634       -0.52203       -2.92784
C          1.72617       -0.70372       -4.23824
C          1.91369        0.39482       -5.07271
C          1.64430        1.67608       -4.60028
C          1.19359        1.85750       -3.29068
N         -0.94270        1.17670       -0.93316
C         -1.38910        2.51866       -0.59251
C         -1.78082        0.08210       -1.15969
O         -1.32336       -1.06082       -1.29893
C         -3.33110        0.25351       -1.20799
C         -3.96166        0.58651        0.14116
C         -4.98924        1.53354        0.29483
C         -5.54830        1.79016        1.55034
C         -5.10290        1.09553        2.67138
C         -4.10377        0.13674        2.53839
C         -3.54429       -0.12044        1.28501
N         -3.72208        1.12168       -2.33890
H          0.74744       -0.99356       -0.07859
H          0.73241        0.35168        1.05770
H          2.16288        0.04618        0.05745
H          0.95971        1.97168       -0.71874
H          1.11292       -1.40181       -2.30935
H          1.91820       -1.70767       -4.60750
H          2.25872        0.25022       -6.09264
H          1.77950        2.53460       -5.25238
H          0.98308        2.86666       -2.94507
H         -2.45838        2.60121       -0.43023
H         -0.89230        2.82817        0.33280
H         -1.10358        3.19841       -1.40049
H         -3.72218       -0.74015       -1.47016
H         -5.37322        2.09086       -0.55504
H         -6.33827        2.53032        1.65129
H         -5.54125        1.29351        3.64592
H         -3.76224       -0.41873        3.40827
H         -2.77530       -0.88917        1.20846
H         -4.72640        1.04622       -2.47637
H         -3.50804        2.08983       -2.13155

--Link1--
%chk=JID_10460.chk
%mem=8GB
%nprocshared=4
# B3LYP/6-311++G(d,p) empiricaldispersion=gd3bj scf=xqc pop=npa geom=check

CID_60939027_JID_10460_Energie_neutraal

0 1

--Link1--
%chk=JID_10460.chk
%mem=8GB
%nprocshared=4
# B3LYP/6-311++G(d,p) empiricaldispersion=gd3bj scf=xqc pop=npa geom=check

CID_60939027_JID_10460_Energie_kation

1 2

--Link1--
%chk=JID_10460.chk
%mem=8GB
%nprocshared=4
# B3LYP/6-311++G(d,p) empiricaldispersion=gd3bj scf=xqc pop=npa geom=check

CID_60939027_JID_10460_Energie_anion

-1 2
