%chk=JID_10198.chk
%mem=8GB
%nprocshared=4
# opt freq B3LYP/6-31G(d) empiricaldispersion=gd3bj scf=xqc

CID_61788651_JID_10198_neutraal

0 1
C          0.92736        0.06419        0.02454
C          0.42720       -1.19138       -0.68332
N          0.91179       -2.42783       -0.04841
C          0.12932       -3.57972       -0.51928
C          0.52689       -4.85094        0.23148
C          2.02906       -5.14710        0.10457
C          2.83525       -3.88784        0.45667
C          2.34246       -2.65251       -0.29869
C          2.46271       -6.30745        1.01481
N          1.87981       -7.58105        0.54072
S          2.28008       -8.97091        1.44000
O          2.14814       -8.59485        2.83293
O          1.43018      -10.00919        0.89244
C          3.95086       -9.32236        1.07865
C          4.23505      -10.02119       -0.03271
N          5.54068      -10.32298       -0.34823
C          6.62348       -9.94960        0.41373
O          7.77759      -10.22629        0.11374
C          6.30913       -9.17505        1.64384
C          5.03304       -8.88850        1.94437
H          0.70021        0.03071        1.09533
H          0.43464        0.94811       -0.39412
H          2.00545        0.20244       -0.09762
H         -0.66873       -1.16217       -0.63080
H          0.69504       -1.15741       -1.74672
H          0.25590       -3.72671       -1.60001
H         -0.93869       -3.40696       -0.33782
H         -0.06096       -5.68775       -0.16230
H          0.25584       -4.74371        1.29012
H          2.24104       -5.41198       -0.94048
H          2.77275       -3.69603        1.53630
H          3.89538       -4.05093        0.22706
H          2.93579       -1.80071        0.05000
H          2.54043       -2.76839       -1.37236
H          3.55455       -6.39053        0.99783
H          2.14174       -6.10956        2.04336
H          0.86087       -7.56171        0.46794
H          3.47668      -10.38330       -0.72188
H          5.75348      -10.85963       -1.18168
H          7.14584       -8.87586        2.26141
H          4.78721       -8.33364        2.84523

--Link1--
%chk=JID_10198.chk
%mem=8GB
%nprocshared=4
# B3LYP/6-311++G(d,p) empiricaldispersion=gd3bj scf=xqc pop=npa geom=check

CID_61788651_JID_10198_Energie_neutraal

0 1

--Link1--
%chk=JID_10198.chk
%mem=8GB
%nprocshared=4
# B3LYP/6-311++G(d,p) empiricaldispersion=gd3bj scf=xqc pop=npa geom=check

CID_61788651_JID_10198_Energie_kation

1 2

--Link1--
%chk=JID_10198.chk
%mem=8GB
%nprocshared=4
# B3LYP/6-311++G(d,p) empiricaldispersion=gd3bj scf=xqc pop=npa geom=check

CID_61788651_JID_10198_Energie_anion

-1 2
