%chk=JID_9536.chk
%mem=8GB
%nprocshared=4
# opt freq B3LYP/6-31G(d) empiricaldispersion=gd3bj scf=xqc

CID_106342280_JID_9536_neutraal

0 1
C          0.91071        0.03377       -0.02977
N          0.60049       -0.09561        1.38534
C         -0.20803        0.87793        1.99016
C         -0.12398        1.25550        3.33975
N         -0.94482        2.15454        3.96717
C         -1.93819        2.68137        3.23243
C         -2.14989        2.35894        1.90708
C         -1.28546        1.44820        1.29481
S          1.14432        0.65419        4.45711
O          1.68847        1.75866        5.22259
O          0.65560       -0.54617        5.10360
N          2.42145        0.11955        3.46804
C          3.43827        1.09265        3.02049
C          4.57342        1.25652        4.01337
S          5.64243       -0.16939        4.06125
O          5.98512       -0.54569        2.70873
O          6.65267        0.03523        5.07393
N          4.59147       -1.35330        4.69030
C          5.03738       -2.74180        4.44420
H          1.30711        1.02789       -0.26185
H          0.03673       -0.17215       -0.65500
H          1.67692       -0.70177       -0.29557
H          1.44617       -0.27970        1.93506
H         -2.58518        3.38221        3.75248
H         -2.97947        2.79208        1.35855
H         -1.48994        1.17455        0.26349
H          2.76427       -0.80098        3.77944
H          3.81380        0.75206        2.04926
H          2.95687        2.05950        2.83499
H          5.21121        2.09301        3.70777
H          4.23330        1.44570        5.03461
H          4.50235       -1.19163        5.70090
H          5.01813       -2.97132        3.37605
H          6.03802       -2.90505        4.85368
H          4.34926       -3.42316        4.95344

--Link1--
%chk=JID_9536.chk
%mem=8GB
%nprocshared=4
# B3LYP/6-311++G(d,p) empiricaldispersion=gd3bj scf=xqc pop=npa geom=check

CID_106342280_JID_9536_Energie_neutraal

0 1

--Link1--
%chk=JID_9536.chk
%mem=8GB
%nprocshared=4
# B3LYP/6-311++G(d,p) empiricaldispersion=gd3bj scf=xqc pop=npa geom=check

CID_106342280_JID_9536_Energie_kation

1 2

--Link1--
%chk=JID_9536.chk
%mem=8GB
%nprocshared=4
# B3LYP/6-311++G(d,p) empiricaldispersion=gd3bj scf=xqc pop=npa geom=check

CID_106342280_JID_9536_Energie_anion

-1 2
