%chk=JID_1617.chk
%mem=8GB
%nprocshared=4
# opt freq B3LYP/6-31G(d) empiricaldispersion=gd3bj scf=xqc

CID_146790151_JID_1617_neutraal

0 1
C          0.92649       -0.04944       -0.04639
C          0.41427       -1.48847       -0.11887
C          0.99171       -2.21176       -1.31492
C          1.08454       -3.55096       -1.33797
C          0.61658       -4.37617       -0.23574
C          0.40467       -3.78825        0.95619
C          0.61246       -2.30391        1.19699
C          1.98264       -2.10852        1.87200
O          2.00880       -0.88586        2.60494
N          0.44241       -5.73419       -0.41234
C          0.23598       -6.40909       -1.67658
H          0.49591        0.47419        0.81339
H          0.63745        0.50800       -0.94507
H          2.01821       -0.00305        0.02502
H         -0.66862       -1.42008       -0.30185
H          1.31031       -1.63482       -2.17791
H          1.50759       -4.04118       -2.20768
H          0.09108       -4.37809        1.81203
H         -0.16518       -1.96514        1.89550
H          2.18263       -2.91100        2.59145
H          2.79757       -2.09903        1.14000
H          2.89607       -0.81404        2.99706
H         -0.03853       -6.17651        0.36657
H          1.11564       -6.32244       -2.32142
H          0.06232       -7.47486       -1.49800
H         -0.63781       -6.00492       -2.19719

--Link1--
%chk=JID_1617.chk
%mem=8GB
%nprocshared=4
# B3LYP/6-311++G(d,p) empiricaldispersion=gd3bj scf=xqc pop=npa geom=check

CID_146790151_JID_1617_Energie_neutraal

0 1

--Link1--
%chk=JID_1617.chk
%mem=8GB
%nprocshared=4
# B3LYP/6-311++G(d,p) empiricaldispersion=gd3bj scf=xqc pop=npa geom=check

CID_146790151_JID_1617_Energie_kation

1 2

--Link1--
%chk=JID_1617.chk
%mem=8GB
%nprocshared=4
# B3LYP/6-311++G(d,p) empiricaldispersion=gd3bj scf=xqc pop=npa geom=check

CID_146790151_JID_1617_Energie_anion

-1 2
