%chk=JID_9398.chk
%mem=8GB
%nprocshared=4
# opt freq B3LYP/6-31G(d) empiricaldispersion=gd3bj scf=xqc

CID_69539605_JID_9398_neutraal

0 1
C          0.97122       -0.06731        0.06812
O          0.17623        0.91860       -0.57824
C          0.81588        1.76632       -1.43908
C         -0.02630        2.63734       -2.13192
C          0.49325        3.54709       -3.05744
C          1.86860        3.60373       -3.30010
C          2.71229        2.73503       -2.60003
C          2.19000        1.82387       -1.67045
S          2.46562        4.73502       -4.54634
O          3.98630        5.05550       -3.95041
C          4.13415        6.22374       -3.26885
O          3.26539        7.02424       -2.95397
C          5.57724        6.44313       -2.96222
C          5.95074        7.66075       -2.37993
C          7.29556        7.93082       -2.10361
C          8.28294        6.97693       -2.35823
C          7.91407        5.78494       -2.98638
C          6.57142        5.50552       -3.26947
N          9.63397        7.30476       -2.20941
H          0.30494       -0.69349        0.66921
H          1.69516        0.39655        0.74602
H          1.47070       -0.71486       -0.66020
H         -1.09913        2.60257       -1.95760
H         -0.19008        4.20568       -3.58905
H          3.78443        2.74314       -2.77652
H          2.88362        1.17149       -1.15067
H          5.20058        8.41839       -2.15917
H          7.56373        8.90010       -1.69033
H          8.67442        5.06089       -3.26944
H          6.33064        4.56064       -3.74932
H          9.81337        8.01235       -1.50345
H         10.24907        6.50286       -2.11375

--Link1--
%chk=JID_9398.chk
%mem=8GB
%nprocshared=4
# B3LYP/6-311++G(d,p) empiricaldispersion=gd3bj scf=xqc pop=npa geom=check

CID_69539605_JID_9398_Energie_neutraal

0 1

--Link1--
%chk=JID_9398.chk
%mem=8GB
%nprocshared=4
# B3LYP/6-311++G(d,p) empiricaldispersion=gd3bj scf=xqc pop=npa geom=check

CID_69539605_JID_9398_Energie_kation

1 2

--Link1--
%chk=JID_9398.chk
%mem=8GB
%nprocshared=4
# B3LYP/6-311++G(d,p) empiricaldispersion=gd3bj scf=xqc pop=npa geom=check

CID_69539605_JID_9398_Energie_anion

-1 2
