%chk=JID_9390.chk
%mem=8GB
%nprocshared=4
# opt freq B3LYP/6-31G(d) empiricaldispersion=gd3bj scf=xqc

CID_116079413_JID_9390_neutraal

0 1
C          1.07218       -0.06862        0.00900
C          0.15995        1.09914        0.34143
C          0.92194        2.42814        0.35684
C          0.05411        3.72130        0.36355
C         -1.22421        3.57227        1.20687
C          0.90775        4.83364        1.02458
N         -0.24575        4.26520       -0.97219
C         -0.70847        3.39802       -2.04800
C         -2.16396        2.99149       -2.00459
C         -3.18803        3.92110       -1.76701
C         -4.53050        3.52582       -1.74253
C         -4.87142        2.19881       -2.03612
C         -3.86249        1.26818       -2.27970
C         -2.52359        1.66299       -2.27852
O         -6.14707        1.69826       -2.10883
C         -7.08912        2.62552       -2.64782
C         -7.63714        3.53818       -1.56458
C         -6.53527        4.07115       -0.66488
O         -5.41965        4.52530       -1.43205
H          0.51110       -1.00805        0.03569
H          1.89375       -0.14298        0.72854
H          1.50031        0.04142       -0.99253
H         -0.65264        1.11278       -0.38183
H         -0.29189        0.92431        1.32487
H          1.56065        2.41503        1.25141
H          1.62318        2.46998       -0.48772
H         -0.97957        3.27924        2.23467
H         -1.77799        4.51714        1.26334
H         -1.90671        2.81795        0.80599
H          1.84565        4.99493        0.47892
H          0.37269        5.79080        1.05933
H          1.16748        4.57250        2.05748
H         -0.84133        5.08630       -0.89901
H         -0.57226        3.94906       -2.98779
H         -0.05731        2.52353       -2.14834
H         -2.95080        4.96438       -1.57648
H         -4.12056        0.23458       -2.49577
H         -1.75933        0.91976       -2.49695
H         -7.91230        2.04223       -3.07576
H         -6.65615        3.19320       -3.48291
H         -8.17113        4.36620       -2.04453
H         -8.36290        2.99967       -0.94445
H         -6.91642        4.93136       -0.10303
H         -6.22703        3.33257        0.08795

--Link1--
%chk=JID_9390.chk
%mem=8GB
%nprocshared=4
# B3LYP/6-311++G(d,p) empiricaldispersion=gd3bj scf=xqc pop=npa geom=check

CID_116079413_JID_9390_Energie_neutraal

0 1

--Link1--
%chk=JID_9390.chk
%mem=8GB
%nprocshared=4
# B3LYP/6-311++G(d,p) empiricaldispersion=gd3bj scf=xqc pop=npa geom=check

CID_116079413_JID_9390_Energie_kation

1 2

--Link1--
%chk=JID_9390.chk
%mem=8GB
%nprocshared=4
# B3LYP/6-311++G(d,p) empiricaldispersion=gd3bj scf=xqc pop=npa geom=check

CID_116079413_JID_9390_Energie_anion

-1 2
