%chk=JID_9047.chk
%mem=8GB
%nprocshared=4
# opt freq B3LYP/6-31G(d) empiricaldispersion=gd3bj scf=xqc

CID_65910354_JID_9047_neutraal

0 1
C          1.78700        0.09100       -0.05500
C          0.93653        1.31087        0.28186
C         -0.37252        1.42978       -0.49219
C         -1.51675        0.66275        0.17157
C         -1.49167       -0.86860        0.02636
C         -0.16101       -1.50824        0.47121
C          1.05034       -1.19963       -0.40383
C         -1.97384       -1.29044       -1.38206
N         -2.12771       -2.74247       -1.46782
C         -2.94009       -3.29597       -2.46704
C         -3.26646       -2.62759       -3.65596
C         -4.05273       -3.29598       -4.56960
C         -4.48912       -4.58859       -4.38712
C         -4.14345       -5.30143       -3.26551
C         -3.35251       -4.64645       -2.31156
O         -5.26995       -5.04391       -5.43563
C         -5.29300       -3.93293       -6.28829
O         -5.89516       -3.90150       -7.35221
N         -4.55817       -2.89194       -5.77174
H          2.45989       -0.09793        0.79140
H          2.44248        0.33942       -0.89985
H          0.73376        1.32533        1.36012
H          1.54450        2.20354        0.08632
H         -0.24561        1.14210       -1.54120
H         -0.65641        2.49019       -0.49729
H         -2.46420        1.04037       -0.23481
H         -1.54029        0.91260        1.24049
H         -2.25060       -1.24435        0.72927
H         -0.29376       -2.59754        0.48511
H          0.05010       -1.22865        1.51124
H          0.77766       -1.19244       -1.46368
H          1.77048       -2.02175       -0.29791
H         -2.94381       -0.80856       -1.56138
H         -1.28595       -0.94375       -2.15985
H         -2.30105       -3.18243       -0.56651
H         -2.93070       -1.61933       -3.85929
H         -4.46507       -6.32649       -3.12429
H         -3.05457       -5.19854       -1.42192
H         -4.44921       -2.00144       -6.22689

--Link1--
%chk=JID_9047.chk
%mem=8GB
%nprocshared=4
# B3LYP/6-311++G(d,p) empiricaldispersion=gd3bj scf=xqc pop=npa geom=check

CID_65910354_JID_9047_Energie_neutraal

0 1

--Link1--
%chk=JID_9047.chk
%mem=8GB
%nprocshared=4
# B3LYP/6-311++G(d,p) empiricaldispersion=gd3bj scf=xqc pop=npa geom=check

CID_65910354_JID_9047_Energie_kation

1 2

--Link1--
%chk=JID_9047.chk
%mem=8GB
%nprocshared=4
# B3LYP/6-311++G(d,p) empiricaldispersion=gd3bj scf=xqc pop=npa geom=check

CID_65910354_JID_9047_Energie_anion

-1 2
