%chk=JID_9512.chk
%mem=8GB
%nprocshared=4
# opt freq B3LYP/6-31G(d) empiricaldispersion=gd3bj scf=xqc

CID_60800980_JID_9512_neutraal

0 1
C          0.65300       -1.21900        0.25200
C         -0.84425       -1.36345       -0.07071
N         -1.56839       -0.13399        0.24149
C         -0.96735        0.98350       -0.51652
C          0.56728        1.15189       -0.39294
N          1.34966       -0.09542       -0.42065
C         -1.48838        0.06917        1.68387
C         -0.07858       -0.01207        2.24624
C          1.13075       -0.08176        2.72864
C          2.45676       -0.13070        3.28299
C          3.00160       -1.39255        3.55225
C          4.28102       -1.50693        4.08598
C          5.02320       -0.35936        4.35689
C          4.49905        0.91750        4.09950
C          5.25946        2.06528        4.37998
C          4.75399        3.34079        4.13104
C          3.48043        3.48667        3.59675
C          2.71216        2.35601        3.31139
C          3.19719        1.04888        3.55387
H          1.03333       -1.62834        1.18536
H          1.05805       -2.06041       -0.34217
H         -1.26654       -2.22020        0.47027
H         -0.97717       -1.59822       -1.13571
H         -1.20601        0.82472       -1.57686
H         -1.46028        1.92560       -0.24592
H          0.80685        1.70687        0.51977
H          0.91672        1.79417       -1.21061
H          1.47239       -0.35109       -1.40077
H         -1.92547        1.03776        1.95591
H         -2.10174       -0.68604        2.19195
H          2.42949       -2.29278        3.34134
H          4.70124       -2.48823        4.28892
H          6.02262       -0.46932        4.77280
H          6.25992        1.97282        4.79736
H          5.35618        4.21751        4.35349
H          3.08117        4.47769        3.39879
H          1.71995        2.50296        2.89068

--Link1--
%chk=JID_9512.chk
%mem=8GB
%nprocshared=4
# B3LYP/6-311++G(d,p) empiricaldispersion=gd3bj scf=xqc pop=npa geom=check

CID_60800980_JID_9512_Energie_neutraal

0 1

--Link1--
%chk=JID_9512.chk
%mem=8GB
%nprocshared=4
# B3LYP/6-311++G(d,p) empiricaldispersion=gd3bj scf=xqc pop=npa geom=check

CID_60800980_JID_9512_Energie_kation

1 2

--Link1--
%chk=JID_9512.chk
%mem=8GB
%nprocshared=4
# B3LYP/6-311++G(d,p) empiricaldispersion=gd3bj scf=xqc pop=npa geom=check

CID_60800980_JID_9512_Energie_anion

-1 2
