%chk=JID_10991.chk
%mem=8GB
%nprocshared=4
# opt freq B3LYP/6-31G(d) empiricaldispersion=gd3bj scf=xqc

CID_104493131_JID_10991_neutraal

0 1
C          0.95746        0.00165        0.09049
C          0.35559        0.69500       -1.13519
C          1.41042        0.79394       -2.23908
C         -0.95330       -0.00111       -1.55086
C         -0.83762       -1.36621       -2.22623
C         -2.19900       -1.55568       -2.89447
N         -2.75324       -0.21559       -3.02263
C         -1.80101        0.77495       -2.55362
C         -4.18161       -0.01421       -2.81852
C         -4.87986        0.01295       -1.40375
C         -4.43767        1.22051       -0.53989
C         -5.03131        1.17802        0.86576
O         -4.67052       -0.03307        1.52644
C         -5.13482       -1.19658        0.84657
C         -4.57916       -1.26283       -0.57570
C         -6.43003        0.06072       -1.66997
N         -6.87721        1.24737       -2.40593
C         -8.31453        1.22008       -2.68813
C         -8.83015        2.03631       -3.83931
C         -8.80966        0.53792       -3.93086
H          1.24793       -1.02992       -0.13461
H          0.24206       -0.01933        0.91946
H          1.84955        0.53396        0.43785
H          0.10133        1.71990       -0.83321
H          1.79716       -0.18987       -2.52302
H          1.01526        1.28086       -3.13471
H          2.26366        1.38973       -1.89552
H         -1.55056       -0.13452       -0.63851
H         -0.62050       -2.16379       -1.50910
H         -0.05685       -1.37258       -2.99408
H         -2.08079       -2.01899       -3.88005
H         -2.82062       -2.22978       -2.30173
H         -2.24874        1.67798       -2.13259
H         -1.20033        1.10040       -3.41026
H         -4.42234        0.93123       -3.32321
H         -4.68873       -0.77970       -3.42290
H         -3.35435        1.19143       -0.40559
H         -4.67195        2.17412       -1.02329
H         -4.62470        2.00504        1.45733
H         -6.12015        1.29047        0.86602
H         -6.22868       -1.22358        0.87080
H         -4.78565       -2.06682        1.41259
H         -4.95763       -2.15778       -1.08249
H         -3.49611       -1.37409       -0.47041
H         -6.71051       -0.83606       -2.23885
H         -6.99231        0.01125       -0.73280
H         -6.64169        2.09393       -1.88989
H         -8.95862        1.17392       -1.81177
H         -9.78959        2.52591       -3.72418
H         -8.11870        2.58681       -4.44391
H         -8.08273        0.08223       -4.59308
H         -9.75462        0.01128       -3.87625

--Link1--
%chk=JID_10991.chk
%mem=8GB
%nprocshared=4
# B3LYP/6-311++G(d,p) empiricaldispersion=gd3bj scf=xqc pop=npa geom=check

CID_104493131_JID_10991_Energie_neutraal

0 1

--Link1--
%chk=JID_10991.chk
%mem=8GB
%nprocshared=4
# B3LYP/6-311++G(d,p) empiricaldispersion=gd3bj scf=xqc pop=npa geom=check

CID_104493131_JID_10991_Energie_kation

1 2

--Link1--
%chk=JID_10991.chk
%mem=8GB
%nprocshared=4
# B3LYP/6-311++G(d,p) empiricaldispersion=gd3bj scf=xqc pop=npa geom=check

CID_104493131_JID_10991_Energie_anion

-1 2
