%chk=JID_10629.chk
%mem=8GB
%nprocshared=4
# opt freq B3LYP/6-31G(d) empiricaldispersion=gd3bj scf=xqc

CID_65337093_JID_10629_neutraal

0 1
C          0.90451       -0.01808        0.02355
C         -0.08984       -0.01463       -1.10977
O         -1.21650       -0.48271       -0.94525
N          0.32155        0.54757       -2.31127
C         -0.57323        0.39558       -3.46873
C         -0.35726        1.47874       -4.53950
N          1.07528        1.52911       -4.91548
C          1.91043        1.87267       -3.74189
C          1.73130        0.81032       -2.63924
C          1.31947        2.46235       -5.95924
N          0.54791        3.56204       -6.03493
C          0.84475        4.43487       -7.00303
N          1.83115        4.32304       -7.89931
C          2.58235        3.21873       -7.83006
C          2.37407        2.22566       -6.86573
C          3.20720        1.08158       -6.86091
C          4.23004        0.93769       -7.79725
C          4.41129        1.90086       -8.78398
C          3.61326        3.04986       -8.74999
N          5.51311        1.82921       -9.64456
H          0.43642       -0.44917        0.91397
H          1.20899        1.00437        0.26180
H          1.77233       -0.63018       -0.23505
H         -0.37413       -0.59653       -3.89296
H         -1.61885        0.41091       -3.14251
H         -0.69325        2.44260       -4.13368
H         -0.97259        1.23792       -5.41506
H          1.62318        2.85618       -3.34499
H          2.97324        1.91711       -4.00871
H          2.28025        1.12779       -1.74881
H          2.15916       -0.14484       -2.96793
H          0.22676        5.32402       -7.06576
H          3.05541        0.30140       -6.11851
H          4.87646        0.06560       -7.75023
H          3.78856        3.84527       -9.47074
H          5.40630        2.37309      -10.49606
H          5.82935        0.88283       -9.83329

--Link1--
%chk=JID_10629.chk
%mem=8GB
%nprocshared=4
# B3LYP/6-311++G(d,p) empiricaldispersion=gd3bj scf=xqc pop=npa geom=check

CID_65337093_JID_10629_Energie_neutraal

0 1

--Link1--
%chk=JID_10629.chk
%mem=8GB
%nprocshared=4
# B3LYP/6-311++G(d,p) empiricaldispersion=gd3bj scf=xqc pop=npa geom=check

CID_65337093_JID_10629_Energie_kation

1 2

--Link1--
%chk=JID_10629.chk
%mem=8GB
%nprocshared=4
# B3LYP/6-311++G(d,p) empiricaldispersion=gd3bj scf=xqc pop=npa geom=check

CID_65337093_JID_10629_Energie_anion

-1 2
