%chk=JID_5759.chk
%mem=8GB
%nprocshared=4
# opt freq B3LYP/6-31G(d) empiricaldispersion=gd3bj scf=xqc

CID_23742170_JID_5759_neutraal

0 1
C          0.94719       -0.05349        0.06595
C         -0.28278        0.19357       -0.81382
C         -0.87760       -1.11047       -1.34526
N         -1.66304       -1.64651       -0.22243
C         -2.19955       -0.47915        0.53398
C         -1.48121        0.79917       -0.05578
C         -2.40155        1.53395       -0.96950
C         -3.70679        1.21404       -1.17701
C         -4.48472        0.11814       -0.59187
C         -3.74733       -0.35272        0.67832
O         -4.22989        2.10138       -2.04943
N         -3.19980        3.00322       -2.37876
N         -2.10539        2.64128       -1.70374
O         -1.05138        1.65931        1.00131
O         -2.74174       -2.41297       -0.80841
H          1.72100       -0.58325       -0.49996
H          0.71205       -0.65128        0.95241
H          1.37838        0.89484        0.40322
H          0.03151        0.83038       -1.65011
H         -1.51256       -0.90515       -2.21711
H         -0.10599       -1.82333       -1.65339
H         -1.82399       -0.62174        1.55716
H         -4.57610       -0.69902       -1.31390
H         -5.49692        0.44603       -0.33350
H         -4.18099       -1.29594        1.03188
H         -3.94031        0.38038        1.47478
H         -0.71845        2.47154        0.57738
H         -2.56825       -3.30179       -0.44108

--Link1--
%chk=JID_5759.chk
%mem=8GB
%nprocshared=4
# B3LYP/6-311++G(d,p) empiricaldispersion=gd3bj scf=xqc pop=npa geom=check

CID_23742170_JID_5759_Energie_neutraal

0 1

--Link1--
%chk=JID_5759.chk
%mem=8GB
%nprocshared=4
# B3LYP/6-311++G(d,p) empiricaldispersion=gd3bj scf=xqc pop=npa geom=check

CID_23742170_JID_5759_Energie_kation

1 2

--Link1--
%chk=JID_5759.chk
%mem=8GB
%nprocshared=4
# B3LYP/6-311++G(d,p) empiricaldispersion=gd3bj scf=xqc pop=npa geom=check

CID_23742170_JID_5759_Energie_anion

-1 2
