%chk=JID_10169.chk
%mem=8GB
%nprocshared=4
# opt freq B3LYP/6-31G(d) empiricaldispersion=gd3bj scf=xqc

CID_108149216_JID_10169_neutraal

0 1
C          0.92324       -0.05004        0.04005
C          0.85308       -1.48457       -0.46557
C          1.98865       -2.36487        0.07503
C          3.36591       -2.00837       -0.50275
C          3.67529       -3.12787       -1.48720
N          3.06766       -4.29340       -0.84136
C          1.77615       -3.85031       -0.29272
C          3.02599       -5.42771       -1.66396
N          1.90046       -5.67763       -2.36775
C          1.85536       -6.75894       -3.15933
N          2.87623       -7.61262       -3.31742
C          4.00452       -7.38087       -2.61212
C          4.10223       -6.28786       -1.77565
N          5.28770       -6.08076       -1.00538
O          5.34290       -6.61697        0.10943
O          6.20706       -5.45290       -1.55079
C          5.11347       -8.37488       -2.79060
N          0.66099       -6.95785       -3.83251
C          0.78148       -7.59087       -5.13180
C         -0.59305       -7.68574       -5.77535
H          0.90328       -0.01962        1.13412
H          0.06428        0.51981       -0.32872
H          1.82996        0.45705       -0.30121
H         -0.11010       -1.90860       -0.15582
H          0.86288       -1.48300       -1.56227
H          2.01823       -2.26426        1.16759
H          4.10663       -2.02220        0.30696
H          3.41921       -1.02655       -0.98023
H          3.20673       -2.91923       -2.45794
H          4.75449       -3.23299       -1.62879
H          1.52311       -4.43816        0.59659
H          0.95240       -3.94402       -1.01051
H          4.82403       -9.15330       -3.50468
H          6.01095       -7.88435       -3.17980
H          5.34723       -8.86499       -1.84049
H          0.16774       -6.07225       -3.81297
H          1.44364       -7.00977       -5.78509
H          1.19167       -8.60332       -5.03641
H         -1.03285       -6.69210       -5.91226
H         -0.52270       -8.16686       -6.75578
H         -1.27779       -8.27228       -5.15354

--Link1--
%chk=JID_10169.chk
%mem=8GB
%nprocshared=4
# B3LYP/6-311++G(d,p) empiricaldispersion=gd3bj scf=xqc pop=npa geom=check

CID_108149216_JID_10169_Energie_neutraal

0 1

--Link1--
%chk=JID_10169.chk
%mem=8GB
%nprocshared=4
# B3LYP/6-311++G(d,p) empiricaldispersion=gd3bj scf=xqc pop=npa geom=check

CID_108149216_JID_10169_Energie_kation

1 2

--Link1--
%chk=JID_10169.chk
%mem=8GB
%nprocshared=4
# B3LYP/6-311++G(d,p) empiricaldispersion=gd3bj scf=xqc pop=npa geom=check

CID_108149216_JID_10169_Energie_anion

-1 2
