%chk=JID_6571.chk
%mem=8GB
%nprocshared=4
# opt freq B3LYP/6-31G(d) empiricaldispersion=gd3bj scf=xqc

CID_104808218_JID_6571_neutraal

0 1
C          1.05095       -0.08508       -0.01291
C          0.54428       -0.13106        1.41942
C          0.10966       -0.17051        2.64808
C         -0.39701       -0.21649        4.08041
C         -1.24586        1.01404        4.40793
O         -2.52596        0.98057        3.75294
C         -2.58964        1.52763        2.49472
C         -3.37589        0.85944        1.53814
C         -3.43771        1.38663        0.23115
C         -2.76335        2.56269       -0.11820
C         -2.05376        3.24882        0.86728
C         -1.97285        2.73878        2.16490
C         -2.86505        3.11396       -1.50913
C         -4.13374       -0.42830        1.81819
C         -3.25246       -1.65922        1.64823
O         -4.72365       -0.46639        3.11677
H          1.22169        0.95215       -0.31441
H          0.31209       -0.53277       -0.68344
H          1.98969       -0.63967       -0.09535
H         -0.98463       -1.13075        4.21446
H          0.46639       -0.26080        4.75296
H         -1.46780        0.99229        5.48140
H         -0.68856        1.93974        4.23785
H         -4.02302        0.86814       -0.52734
H         -1.55840        4.18879        0.63491
H         -1.43477        3.32109        2.90502
H         -3.75303        3.74700       -1.59817
H         -1.98026        3.70870       -1.75999
H         -2.92945        2.30472       -2.24420
H         -4.97219       -0.50493        1.11588
H         -2.46771       -1.69569        2.40878
H         -3.84664       -2.57073        1.77676
H         -2.78057       -1.68843        0.66084
H         -4.17287        0.10104        3.68791

--Link1--
%chk=JID_6571.chk
%mem=8GB
%nprocshared=4
# B3LYP/6-311++G(d,p) empiricaldispersion=gd3bj scf=xqc pop=npa geom=check

CID_104808218_JID_6571_Energie_neutraal

0 1

--Link1--
%chk=JID_6571.chk
%mem=8GB
%nprocshared=4
# B3LYP/6-311++G(d,p) empiricaldispersion=gd3bj scf=xqc pop=npa geom=check

CID_104808218_JID_6571_Energie_kation

1 2

--Link1--
%chk=JID_6571.chk
%mem=8GB
%nprocshared=4
# B3LYP/6-311++G(d,p) empiricaldispersion=gd3bj scf=xqc pop=npa geom=check

CID_104808218_JID_6571_Energie_anion

-1 2
