%chk=JID_3622.chk
%mem=8GB
%nprocshared=4
# opt freq B3LYP/6-31G(d) empiricaldispersion=gd3bj scf=xqc

CID_148544471_JID_3622_neutraal

0 1
C          0.98636        0.02735        0.09521
C         -0.04955        0.96408       -0.50617
C          0.32006        1.57606       -1.87709
C          0.23137        2.92597       -1.19559
C         -0.04686        2.39357        0.01495
C         -0.30065        3.01391        1.38409
C          0.99090        2.96711        2.22235
C          1.23777        4.17705        3.12933
C          1.53949        5.47173        2.37568
C          1.42974        6.54037        3.45454
C          0.39756        6.01761        4.45424
C          0.08190        4.57870        4.04279
C          0.42447        4.34215       -1.69050
H          1.04213       -0.90132       -0.48215
H          0.71792       -0.23506        1.12392
H          1.98585        0.47558        0.10919
H         -1.03870        0.48586       -0.50932
H          1.30912        1.30311       -2.26291
H         -0.41638        1.38888       -2.66669
H         -0.63267        4.04567        1.25055
H         -1.04959        2.42025        1.91853
H          0.96024        2.06399        2.84683
H          1.87024        2.85179        1.57485
H          2.10795        3.94340        3.75972
H          2.53105        5.45981        1.91242
H          0.80444        5.66842        1.58816
H          1.14486        7.51120        3.03729
H          2.39667        6.66798        3.95546
H         -0.51018        6.63038        4.44649
H          0.80649        6.05279        5.47009
H         -0.87945        4.55940        3.51836
H         -0.00399        3.91809        4.91131
H         -0.35616        4.99701       -1.29065
H          1.34548        4.74251       -1.25000
H          0.49527        4.39508       -2.77774

--Link1--
%chk=JID_3622.chk
%mem=8GB
%nprocshared=4
# B3LYP/6-311++G(d,p) empiricaldispersion=gd3bj scf=xqc pop=npa geom=check

CID_148544471_JID_3622_Energie_neutraal

0 1

--Link1--
%chk=JID_3622.chk
%mem=8GB
%nprocshared=4
# B3LYP/6-311++G(d,p) empiricaldispersion=gd3bj scf=xqc pop=npa geom=check

CID_148544471_JID_3622_Energie_kation

1 2

--Link1--
%chk=JID_3622.chk
%mem=8GB
%nprocshared=4
# B3LYP/6-311++G(d,p) empiricaldispersion=gd3bj scf=xqc pop=npa geom=check

CID_148544471_JID_3622_Energie_anion

-1 2
