%chk=JID_1683.chk
%mem=8GB
%nprocshared=4
# opt freq B3LYP/6-31G(d) empiricaldispersion=gd3bj scf=xqc

CID_58536860_JID_1683_neutraal

0 1
C          1.08716       -0.03327       -0.03600
C          0.43394       -0.86544        1.05797
C          1.02472       -0.61351        2.45080
C          0.68610        0.75735        3.06027
C         -0.79507        1.03564        3.38247
C         -1.62461       -0.14488        3.89698
C         -3.03040        0.29622        4.28089
O          1.61998        1.16173        4.06495
C          1.68653        0.64778        5.38822
C          0.65279        1.26871        6.32011
C          1.77166       -0.86521        5.51775
H          0.87812        1.03284        0.08864
H          0.70054       -0.33290       -1.01551
H          2.17239       -0.17556       -0.04363
H         -0.64617       -0.68776        1.05307
H          0.57853       -1.92449        0.81182
H          0.67374       -1.41389        3.10851
H          2.11516       -0.72909        2.40383
H          0.91712        1.48615        2.27361
H         -0.86482        1.87701        4.08106
H         -1.27743        1.37738        2.45599
H         -1.70589       -0.91822        3.12636
H         -1.15654       -0.61031        4.76553
H         -3.55264        0.73392        3.42421
H         -3.61332       -0.56095        4.63237
H         -3.00238        1.03929        5.08431
H          2.65288        1.02237        5.75068
H         -0.34646        0.86011        6.16647
H          0.91817        1.08540        7.36677
H          0.59092        2.35059        6.16289
H          2.52366       -1.27303        4.83520
H          2.04984       -1.14856        6.53861
H          0.82061       -1.35251        5.29751

--Link1--
%chk=JID_1683.chk
%mem=8GB
%nprocshared=4
# B3LYP/6-311++G(d,p) empiricaldispersion=gd3bj scf=xqc pop=npa geom=check

CID_58536860_JID_1683_Energie_neutraal

0 1

--Link1--
%chk=JID_1683.chk
%mem=8GB
%nprocshared=4
# B3LYP/6-311++G(d,p) empiricaldispersion=gd3bj scf=xqc pop=npa geom=check

CID_58536860_JID_1683_Energie_kation

1 2

--Link1--
%chk=JID_1683.chk
%mem=8GB
%nprocshared=4
# B3LYP/6-311++G(d,p) empiricaldispersion=gd3bj scf=xqc pop=npa geom=check

CID_58536860_JID_1683_Energie_anion

-1 2
