%chk=JID_10813.chk
%mem=8GB
%nprocshared=4
# opt freq B3LYP/6-31G(d) empiricaldispersion=gd3bj scf=xqc

CID_81100215_JID_10813_neutraal

0 1
C          0.98287        0.08937       -0.04148
N          0.38760        0.16896       -1.37065
C         -0.82951       -0.64624       -1.63689
C         -1.95810       -0.48280       -0.59969
C         -1.88726       -1.46130        0.57417
C         -1.59411       -2.88765        0.12389
N         -0.36978       -2.94139       -0.66970
C         -0.50228       -2.14128       -1.89204
C          1.24414        0.60901       -2.39216
O          2.43486        0.84477       -2.17739
C          0.64843        0.82349       -3.79455
C         -0.40799        1.95748       -3.83199
C          0.26090        3.33540       -3.66419
C          1.27129        3.58384       -4.79361
C          0.55180        3.51563       -6.15084
C         -0.09412        2.13203       -6.33259
C         -1.11449        1.90921       -5.20176
C          1.00089        1.04955       -6.26366
C          1.71288        1.09992       -4.89327
C          2.35192        2.49587       -4.74321
H          1.31235       -0.93310        0.15592
H          0.25592        0.41518        0.70420
H          1.84760        0.75291        0.05519
H         -1.25521       -0.27727       -2.57225
H         -2.00803        0.54897       -0.23290
H         -2.91054       -0.66928       -1.11507
H         -1.12398       -1.14513        1.29220
H         -2.83947       -1.43955        1.11768
H         -1.47321       -3.52373        1.00763
H         -2.43926       -3.29148       -0.44675
H         -0.16891       -3.90915       -0.92178
H         -1.29594       -2.57813       -2.51222
H          0.42541       -2.22793       -2.46911
H          0.17909       -0.13071       -4.06750
H         -1.15295        1.83998       -3.03891
H         -0.50507        4.12097       -3.67455
H          0.76111        3.39813       -2.69034
H          1.73166        4.57039       -4.66979
H          1.26409        3.70619       -6.96301
H         -0.21413        4.29871       -6.20918
H         -0.60060        2.08477       -7.30298
H         -1.89636        2.67742       -5.24648
H         -1.61366        0.94119       -5.33244
H          1.72906        1.20228       -7.06988
H          0.55776        0.05861       -6.42156
H          2.49751        0.33489       -4.86043
H          2.91372        2.57619       -3.80740
H          3.07911        2.65734       -5.54922

--Link1--
%chk=JID_10813.chk
%mem=8GB
%nprocshared=4
# B3LYP/6-311++G(d,p) empiricaldispersion=gd3bj scf=xqc pop=npa geom=check

CID_81100215_JID_10813_Energie_neutraal

0 1

--Link1--
%chk=JID_10813.chk
%mem=8GB
%nprocshared=4
# B3LYP/6-311++G(d,p) empiricaldispersion=gd3bj scf=xqc pop=npa geom=check

CID_81100215_JID_10813_Energie_kation

1 2

--Link1--
%chk=JID_10813.chk
%mem=8GB
%nprocshared=4
# B3LYP/6-311++G(d,p) empiricaldispersion=gd3bj scf=xqc pop=npa geom=check

CID_81100215_JID_10813_Energie_anion

-1 2
