%chk=JID_8887.chk
%mem=8GB
%nprocshared=4
# opt freq B3LYP/6-31G(d) empiricaldispersion=gd3bj scf=xqc

CID_63072296_JID_8887_neutraal

0 1
C          0.97560       -0.04398        0.08643
C          0.84744       -1.26305       -0.73983
C          0.90617       -2.57737       -0.33096
N          0.68626       -3.37386       -1.43738
N          0.64412       -2.61631       -2.56667
C          0.68685       -1.35687       -2.13420
C          0.58379       -4.79570       -1.50648
C          0.97864       -5.40143       -2.71721
C          1.01435       -6.78913       -2.84720
C          0.65222       -7.59143       -1.77384
C          0.21335       -7.00569       -0.58608
C          0.12679       -5.60374       -0.43749
C         -0.51388       -5.06120        0.82837
N         -1.69198       -5.83296        1.24425
C         -2.37252       -5.23680        2.40716
C         -3.00863       -3.86134        2.13696
O         -3.74763       -3.91693        0.91282
C         -4.14112       -2.62314        0.47600
H          0.53074       -0.19347        1.07557
H          0.46925        0.80449       -0.38489
H          2.03040        0.21648        0.21914
H          1.10770       -2.99979        0.64106
H          0.61910       -0.55562       -2.85966
H          1.29864       -4.79517       -3.56395
H          1.33727       -7.23884       -3.78222
H          0.68621       -8.67386       -1.86437
H         -0.10565       -7.65684        0.22771
H          0.23804       -5.05589        1.62562
H         -0.85156       -4.04208        0.64482
H         -2.36392       -5.79687        0.46973
H         -3.17439       -5.93151        2.68379
H         -1.69502       -5.18075        3.26660
H         -3.68960       -3.60032        2.95468
H         -2.23287       -3.08932        2.07578
H         -4.75690       -2.13140        1.23476
H         -3.25996       -2.01373        0.25133
H         -4.72899       -2.73226       -0.43922

--Link1--
%chk=JID_8887.chk
%mem=8GB
%nprocshared=4
# B3LYP/6-311++G(d,p) empiricaldispersion=gd3bj scf=xqc pop=npa geom=check

CID_63072296_JID_8887_Energie_neutraal

0 1

--Link1--
%chk=JID_8887.chk
%mem=8GB
%nprocshared=4
# B3LYP/6-311++G(d,p) empiricaldispersion=gd3bj scf=xqc pop=npa geom=check

CID_63072296_JID_8887_Energie_kation

1 2

--Link1--
%chk=JID_8887.chk
%mem=8GB
%nprocshared=4
# B3LYP/6-311++G(d,p) empiricaldispersion=gd3bj scf=xqc pop=npa geom=check

CID_63072296_JID_8887_Energie_anion

-1 2
