%chk=JID_10781.chk
%mem=8GB
%nprocshared=4
# opt freq B3LYP/6-31G(d) empiricaldispersion=gd3bj scf=xqc

CID_116104414_JID_10781_neutraal

0 1
C          0.94196        0.00369       -0.08135
C          0.57871        1.45160       -0.37865
C          1.09470        1.94436       -1.73383
N          0.47990        1.20390       -2.83268
C          0.89167        1.69653       -4.15279
C          2.36664        1.47576       -4.53388
C          2.85123        0.06301       -4.38666
C          3.82452       -0.37108       -3.50779
N          4.01804       -1.71620       -3.69553
C          3.17324       -2.18147       -4.68074
C          2.99747       -3.46751       -5.21892
C          2.04699       -3.63986       -6.22847
C          1.30143       -2.56482       -6.69735
C          1.48754       -1.28609       -6.16299
C          2.43119       -1.08431       -5.13306
C          5.04483       -2.48320       -3.00899
C          4.64682       -2.96736       -1.61461
S          3.64919       -4.49910       -1.64061
C          1.97846       -3.79865       -1.44830
C          1.66626       -3.55146        0.01696
H          0.43180       -0.68605       -0.76005
H          0.64319       -0.25640        0.93922
H          2.02116       -0.15701       -0.16986
H         -0.51015        1.57134       -0.32441
H          1.00491        2.08742        0.40672
H          0.85279        3.00978       -1.82536
H          2.18577        1.84799       -1.75432
H          0.74133        0.21814       -2.76983
H          0.25639        1.19351       -4.89066
H          0.65211        2.76354       -4.24036
H          2.50815        1.78488       -5.57745
H          3.00056        2.14233       -3.93558
H          4.40751        0.17953       -2.78045
H          3.57268       -4.31682       -4.86390
H          1.89183       -4.62914       -6.65261
H          0.56867       -2.71632       -7.48574
H          0.90145       -0.45550       -6.54410
H          5.36929       -3.30406       -3.65785
H          5.90787       -1.81089       -2.91570
H          5.56234       -3.22206       -1.06952
H          4.14118       -2.18497       -1.03992
H          1.87546       -2.87787       -2.02814
H          1.26516       -4.52348       -1.85316
H          2.34290       -2.81369        0.45959
H          0.64550       -3.16911        0.12009
H          1.73081       -4.47515        0.60223

--Link1--
%chk=JID_10781.chk
%mem=8GB
%nprocshared=4
# B3LYP/6-311++G(d,p) empiricaldispersion=gd3bj scf=xqc pop=npa geom=check

CID_116104414_JID_10781_Energie_neutraal

0 1

--Link1--
%chk=JID_10781.chk
%mem=8GB
%nprocshared=4
# B3LYP/6-311++G(d,p) empiricaldispersion=gd3bj scf=xqc pop=npa geom=check

CID_116104414_JID_10781_Energie_kation

1 2

--Link1--
%chk=JID_10781.chk
%mem=8GB
%nprocshared=4
# B3LYP/6-311++G(d,p) empiricaldispersion=gd3bj scf=xqc pop=npa geom=check

CID_116104414_JID_10781_Energie_anion

-1 2
