%chk=JID_7544.chk
%mem=8GB
%nprocshared=4
# opt freq B3LYP/6-31G(d) empiricaldispersion=gd3bj scf=xqc

CID_82207277_JID_7544_neutraal

0 1
C          0.95528       -0.08256        0.03440
C          2.18225        0.80279       -0.09493
N          2.18287        1.56207       -1.32715
C          1.63016        2.79283       -1.58929
C          1.85798        2.95380       -2.94668
N          2.53982        1.86705       -3.43079
N          2.74037        1.02585       -2.42905
C          1.46289        4.04982       -3.86401
O          0.37531        3.66355       -4.70278
C          0.92986        3.63202       -0.63139
C         -0.44877        3.82697       -0.74509
C         -1.12021        4.64105        0.17064
C         -0.42668        5.27689        1.20302
C          0.95142        5.09146        1.31279
C          1.62651        4.27473        0.39750
O         -1.20377        6.04407        2.02550
C         -0.53941        6.75239        3.06421
H          0.03564        0.51181        0.03210
H          0.99273       -0.64903        0.96994
H          0.89360       -0.79551       -0.79461
H          2.24417        1.50128        0.74424
H          3.09433        0.19528       -0.07916
H          1.16116        4.94540       -3.31286
H          2.30503        4.32616       -4.50693
H          0.62335        2.79472       -5.06886
H         -1.01200        3.35073       -1.54540
H         -2.19386        4.78558        0.07413
H          1.53225        5.57051        2.09390
H          2.70398        4.15582        0.49064
H         -0.06645        6.06295        3.77127
H          0.18815        7.46188        2.65623
H         -1.29270        7.32642        3.61235

--Link1--
%chk=JID_7544.chk
%mem=8GB
%nprocshared=4
# B3LYP/6-311++G(d,p) empiricaldispersion=gd3bj scf=xqc pop=npa geom=check

CID_82207277_JID_7544_Energie_neutraal

0 1

--Link1--
%chk=JID_7544.chk
%mem=8GB
%nprocshared=4
# B3LYP/6-311++G(d,p) empiricaldispersion=gd3bj scf=xqc pop=npa geom=check

CID_82207277_JID_7544_Energie_kation

1 2

--Link1--
%chk=JID_7544.chk
%mem=8GB
%nprocshared=4
# B3LYP/6-311++G(d,p) empiricaldispersion=gd3bj scf=xqc pop=npa geom=check

CID_82207277_JID_7544_Energie_anion

-1 2
