%chk=JID_9396.chk
%mem=8GB
%nprocshared=4
# opt freq B3LYP/6-31G(d) empiricaldispersion=gd3bj scf=xqc

CID_99839367_JID_9396_neutraal

0 1
C          2.20000        0.01800       -0.02000
N          0.83846       -0.36710       -0.30100
C          0.43497       -1.63708       -0.61128
C         -0.92287       -1.54864       -0.78896
N         -1.35101       -0.26424       -0.59530
C         -0.27258        0.44799       -0.31614
C         -0.24698        1.91005       -0.00814
S         -0.76703        2.96041       -1.40230
C          0.55927        2.61829       -2.60911
C          1.75707        3.58121       -2.52782
N          2.65953        3.29678       -1.39858
C          4.01982        3.01874       -1.85367
C          2.61061        4.30216       -0.32101
C          3.15071        5.68525       -0.61898
C          4.51473        5.97543       -0.46333
C          5.00295        7.25901       -0.71484
C          4.13318        8.27003       -1.11747
C          2.77499        7.99978       -1.26661
C          2.28630        6.71667       -1.01629
H          2.79077       -0.87766        0.19148
H          2.60093        0.51948       -0.90131
H          2.22159        0.67045        0.85518
H          1.11902       -2.47115       -0.67648
H         -1.61547       -2.34026       -1.04279
H         -0.95520        2.09466        0.80757
H          0.72432        2.24373        0.35662
H          0.88421        1.57481       -2.56338
H          0.09842        2.74588       -3.59559
H          2.30399        3.46771       -3.47451
H          1.40086        4.61594       -2.54114
H          4.45995        3.85316       -2.41004
H          4.67274        2.77398       -1.00865
H          4.02547        2.13996       -2.50914
H          1.57949        4.40411        0.03825
H          3.15033        3.90222        0.54868
H          5.20645        5.20215       -0.13783
H          6.06162        7.47143       -0.59131
H          4.51233        9.27020       -1.30929
H          2.09315        8.78891       -1.57275
H          1.21999        6.52753       -1.12511

--Link1--
%chk=JID_9396.chk
%mem=8GB
%nprocshared=4
# B3LYP/6-311++G(d,p) empiricaldispersion=gd3bj scf=xqc pop=npa geom=check

CID_99839367_JID_9396_Energie_neutraal

0 1

--Link1--
%chk=JID_9396.chk
%mem=8GB
%nprocshared=4
# B3LYP/6-311++G(d,p) empiricaldispersion=gd3bj scf=xqc pop=npa geom=check

CID_99839367_JID_9396_Energie_kation

1 2

--Link1--
%chk=JID_9396.chk
%mem=8GB
%nprocshared=4
# B3LYP/6-311++G(d,p) empiricaldispersion=gd3bj scf=xqc pop=npa geom=check

CID_99839367_JID_9396_Energie_anion

-1 2
