%chk=JID_6164.chk
%mem=8GB
%nprocshared=4
# opt freq B3LYP/6-31G(d) empiricaldispersion=gd3bj scf=xqc

CID_82905612_JID_6164_neutraal

0 1
C         -2.19800       -0.07500       -0.00500
C         -0.76004       -0.06920       -0.31768
N         -0.01481       -1.00199       -0.86917
N          1.26214       -0.48685       -0.94338
C          1.20352        0.72460       -0.43167
O         -0.05573        1.06289       -0.00658
C          2.28574        1.73871       -0.26810
N          2.51579        2.65564       -1.41583
C          1.34011        3.52527       -1.62837
C          1.57167        4.65478       -2.63741
S          1.88992        3.99931       -4.29841
C          3.25465        2.88559       -3.84050
C          2.91056        1.93899       -2.67390
C          4.16736        1.07798       -2.50476
O          4.43056        0.07331       -3.14891
O          5.07790        1.56062       -1.63323
H         -2.36272        0.14746        1.05338
H         -2.72234        0.67553       -0.60371
H         -2.63698       -1.05352       -0.22094
H          2.07061        2.34455        0.62214
H          3.21206        1.21214       -0.01468
H          1.08102        4.00480       -0.67551
H          0.46355        2.93931       -1.93449
H          0.68384        5.29338       -2.68674
H          2.41350        5.28544       -2.33163
H          4.12848        3.50258       -3.59786
H          3.51898        2.30655       -4.73296
H          2.09960        1.26507       -2.97952
H          5.81716        0.91933       -1.68651

--Link1--
%chk=JID_6164.chk
%mem=8GB
%nprocshared=4
# B3LYP/6-311++G(d,p) empiricaldispersion=gd3bj scf=xqc pop=npa geom=check

CID_82905612_JID_6164_Energie_neutraal

0 1

--Link1--
%chk=JID_6164.chk
%mem=8GB
%nprocshared=4
# B3LYP/6-311++G(d,p) empiricaldispersion=gd3bj scf=xqc pop=npa geom=check

CID_82905612_JID_6164_Energie_kation

1 2

--Link1--
%chk=JID_6164.chk
%mem=8GB
%nprocshared=4
# B3LYP/6-311++G(d,p) empiricaldispersion=gd3bj scf=xqc pop=npa geom=check

CID_82905612_JID_6164_Energie_anion

-1 2
