%chk=JID_5548.chk
%mem=8GB
%nprocshared=4
# opt freq B3LYP/6-31G(d) empiricaldispersion=gd3bj scf=xqc

CID_62535693_JID_5548_neutraal

0 1
C          1.04644       -0.04173       -0.07812
C          0.53977        1.37154        0.15931
C          0.96277        2.29338       -1.02884
O          0.54400        1.74418       -2.28686
C          0.92203        2.57621       -3.37669
C         -0.98023        1.37154        0.15931
N         -2.24120        1.37153        0.15931
N          0.97066        1.90340        1.48074
C          2.37658        1.81810        1.86153
C          3.27387        2.83854        1.20516
C          4.36155        2.42502        0.42073
C          5.18839        3.36409       -0.19855
C          4.94462        4.72580       -0.03324
C          3.87992        5.15081        0.75833
C          3.05220        4.21386        1.37943
H          0.56710       -0.50450       -0.94963
H          0.82422       -0.69425        0.77546
H          2.12740       -0.07090       -0.25302
H          0.52751        3.29462       -0.91223
H          2.04880        2.39034       -1.07380
H          0.46066        3.56383       -3.28324
H          2.01112        2.67090       -3.42518
H          0.57059        2.11159       -4.30177
H          0.63424        2.85807        1.59525
H          2.43573        1.99314        2.94375
H          2.76705        0.80342        1.72948
H          4.56887        1.36620        0.27928
H          6.02512        3.03288       -0.80864
H          5.59033        5.45623       -0.51417
H          3.69791        6.21370        0.89732
H          2.23593        4.56638        2.00604

--Link1--
%chk=JID_5548.chk
%mem=8GB
%nprocshared=4
# B3LYP/6-311++G(d,p) empiricaldispersion=gd3bj scf=xqc pop=npa geom=check

CID_62535693_JID_5548_Energie_neutraal

0 1

--Link1--
%chk=JID_5548.chk
%mem=8GB
%nprocshared=4
# B3LYP/6-311++G(d,p) empiricaldispersion=gd3bj scf=xqc pop=npa geom=check

CID_62535693_JID_5548_Energie_kation

1 2

--Link1--
%chk=JID_5548.chk
%mem=8GB
%nprocshared=4
# B3LYP/6-311++G(d,p) empiricaldispersion=gd3bj scf=xqc pop=npa geom=check

CID_62535693_JID_5548_Energie_anion

-1 2
