%chk=JID_6776.chk
%mem=8GB
%nprocshared=4
# opt freq B3LYP/6-31G(d) empiricaldispersion=gd3bj scf=xqc

CID_131274183_JID_6776_neutraal

0 1
C          0.23500        1.24000        0.67300
C         -0.97332        0.92217       -0.19944
O         -1.61621       -0.26940        0.25271
C         -0.75833       -1.40136        0.12897
C          0.46114       -1.23991        1.02803
C          1.22154        0.06226        0.71425
C          2.34279        0.26657        1.76755
C          3.20093        1.50081        1.58412
C          2.90393        2.68405        2.27500
C          3.69536        3.82354        2.10494
C          4.79644        3.79163        1.24465
C          5.10058        2.61569        0.55406
C          4.30635        1.47838        0.72224
C          5.61108        4.95860        1.07207
N          6.27280        5.90197        0.93414
O          1.80588       -0.07984       -0.58963
H         -0.11397        1.45382        1.69099
H          0.71487        2.14196        0.27723
H         -0.69747        0.81619       -1.25522
H         -1.70141        1.73702       -0.13231
H         -0.47580       -1.54048       -0.92120
H         -1.32766       -2.28526        0.43397
H          1.11433       -2.11118        0.90083
H          0.12443       -1.21856        2.07222
H          1.90597        0.28913        2.77500
H          3.01370       -0.60375        1.75666
H          2.05042        2.72906        2.94874
H          3.44522        4.73328        2.64756
H          5.95396        2.57575       -0.12031
H          4.55724        0.57456        0.17164
H          2.47085       -0.78816       -0.55015

--Link1--
%chk=JID_6776.chk
%mem=8GB
%nprocshared=4
# B3LYP/6-311++G(d,p) empiricaldispersion=gd3bj scf=xqc pop=npa geom=check

CID_131274183_JID_6776_Energie_neutraal

0 1

--Link1--
%chk=JID_6776.chk
%mem=8GB
%nprocshared=4
# B3LYP/6-311++G(d,p) empiricaldispersion=gd3bj scf=xqc pop=npa geom=check

CID_131274183_JID_6776_Energie_kation

1 2

--Link1--
%chk=JID_6776.chk
%mem=8GB
%nprocshared=4
# B3LYP/6-311++G(d,p) empiricaldispersion=gd3bj scf=xqc pop=npa geom=check

CID_131274183_JID_6776_Energie_anion

-1 2
