%chk=JID_5430.chk
%mem=8GB
%nprocshared=4
# opt freq B3LYP/6-31G(d) empiricaldispersion=gd3bj scf=xqc

CID_62900237_JID_5430_neutraal

0 1
C          1.06027       -0.04277       -0.06736
C          0.30148        1.09543        0.60331
C          0.60031        2.46574       -0.02705
C         -0.00950        2.62947       -1.43832
O         -0.80949        1.85476       -1.95149
N          0.43997        3.72215       -2.13155
O          0.32874        3.54704        0.88419
C         -0.98997        3.89125        0.99892
C         -1.43012        5.05794        0.37298
C         -2.75875        5.46393        0.50869
C         -3.63491        4.71379        1.29756
C         -3.18380        3.57162        1.96443
C         -1.85246        3.17088        1.82477
C         -5.04259        5.13324        1.44811
O         -5.48395        6.13960        0.90749
H          0.78998       -0.14260       -1.12250
H          0.82990       -0.99093        0.42897
H          2.14139        0.11663       -0.00322
H         -0.77059        0.87373        0.55134
H          0.56838        1.11527        1.66692
H          1.68753        2.51351       -0.17924
H          0.93315        4.47206       -1.66589
H          0.00700        3.90917       -3.02678
H         -0.74625        5.65643       -0.22066
H         -3.10577        6.36457        0.00640
H         -3.84957        2.99334        2.59960
H         -1.49701        2.30452        2.37442
H         -5.68288        4.49254        2.07731

--Link1--
%chk=JID_5430.chk
%mem=8GB
%nprocshared=4
# B3LYP/6-311++G(d,p) empiricaldispersion=gd3bj scf=xqc pop=npa geom=check

CID_62900237_JID_5430_Energie_neutraal

0 1

--Link1--
%chk=JID_5430.chk
%mem=8GB
%nprocshared=4
# B3LYP/6-311++G(d,p) empiricaldispersion=gd3bj scf=xqc pop=npa geom=check

CID_62900237_JID_5430_Energie_kation

1 2

--Link1--
%chk=JID_5430.chk
%mem=8GB
%nprocshared=4
# B3LYP/6-311++G(d,p) empiricaldispersion=gd3bj scf=xqc pop=npa geom=check

CID_62900237_JID_5430_Energie_anion

-1 2
