%chk=JID_6509.chk
%mem=8GB
%nprocshared=4
# opt freq B3LYP/6-31G(d) empiricaldispersion=gd3bj scf=xqc

CID_85722428_JID_6509_neutraal

0 1
C          2.70000        0.89700        0.02400
C          1.38159        0.24840       -0.28371
C          0.23910        1.03563       -0.45912
C         -0.97761        0.42588       -0.73693
N         -1.12355       -0.90731       -0.82809
C         -0.02865       -1.69743       -0.65127
C          1.22089       -1.14189       -0.37801
N          2.36120       -2.00709       -0.19653
O          2.74705       -2.19454        0.96389
O          2.87465       -2.48054       -1.21810
C         -0.29406       -3.18114       -0.73048
C         -0.51630       -3.84197        0.63430
C         -1.72849       -3.33208        1.42678
C         -3.08384       -3.45018        0.72628
N         -3.42220       -4.83414        0.41215
N         -2.13058        1.18665       -0.88876
H          3.47716        0.53637       -0.65748
H          2.64624        1.98444       -0.09608
H          2.99379        0.68811        1.05737
H          0.28833        2.11698       -0.36982
H         -1.16685       -3.35192       -1.37254
H          0.53183       -3.68273       -1.24709
H         -0.61398       -4.92387        0.48311
H          0.37535       -3.70727        1.25824
H         -1.77069       -3.88407        2.37508
H         -1.56812       -2.28242        1.70124
H         -3.85602       -3.04875        1.39205
H         -3.11079       -2.84864       -0.18721
H         -4.35407       -4.86316       -0.00044
H         -2.79032       -5.19192       -0.30178
H         -2.01927        1.91228       -1.58717
H         -2.88707        0.54923       -1.12507

--Link1--
%chk=JID_6509.chk
%mem=8GB
%nprocshared=4
# B3LYP/6-311++G(d,p) empiricaldispersion=gd3bj scf=xqc pop=npa geom=check

CID_85722428_JID_6509_Energie_neutraal

0 1

--Link1--
%chk=JID_6509.chk
%mem=8GB
%nprocshared=4
# B3LYP/6-311++G(d,p) empiricaldispersion=gd3bj scf=xqc pop=npa geom=check

CID_85722428_JID_6509_Energie_kation

1 2

--Link1--
%chk=JID_6509.chk
%mem=8GB
%nprocshared=4
# B3LYP/6-311++G(d,p) empiricaldispersion=gd3bj scf=xqc pop=npa geom=check

CID_85722428_JID_6509_Energie_anion

-1 2
