%chk=JID_7759.chk
%mem=8GB
%nprocshared=4
# opt freq B3LYP/6-31G(d) empiricaldispersion=gd3bj scf=xqc

CID_145566366_JID_7759_neutraal

0 1
C          1.00660        0.04736        0.08783
O          0.54352       -1.22388       -0.36725
C          0.69351       -1.41493       -1.70739
O          1.10537       -0.56020       -2.48639
C          0.30257       -2.81978       -2.14614
C         -0.86000       -3.47939       -1.41446
C         -0.65163       -4.97127       -1.66040
C          0.66804       -5.07105       -2.42059
N          1.40531       -3.83147       -2.08741
S          2.44217       -3.91810       -0.76874
C          3.75194       -2.76605       -1.16587
C          3.99811       -2.28873       -2.45517
C          5.01224       -1.35654       -2.67803
C          5.81156       -0.92472       -1.61888
C          5.63803       -1.45128       -0.33856
C          4.57145       -2.32771       -0.11391
N          6.36670       -0.93477        0.74162
H          0.38610        0.84834       -0.32567
H          2.05901        0.19517       -0.17508
H          0.91890        0.06869        1.17759
H          0.00847       -2.71113       -3.20142
H         -0.85646       -3.27707       -0.33770
H         -1.82418       -3.14083       -1.80847
H         -0.59381       -5.50183       -0.70311
H         -1.47498       -5.40432       -2.23741
H          1.21537       -5.99053       -2.18226
H          0.47679       -5.09136       -3.50133
H          3.38703       -2.60797       -3.29471
H          5.16613       -0.95317       -3.67531
H          6.57473       -0.17401       -1.80501
H          4.37627       -2.67632        0.89735
H          6.41879       -1.56715        1.53451
H          7.28020       -0.57740        0.47893

--Link1--
%chk=JID_7759.chk
%mem=8GB
%nprocshared=4
# B3LYP/6-311++G(d,p) empiricaldispersion=gd3bj scf=xqc pop=npa geom=check

CID_145566366_JID_7759_Energie_neutraal

0 1

--Link1--
%chk=JID_7759.chk
%mem=8GB
%nprocshared=4
# B3LYP/6-311++G(d,p) empiricaldispersion=gd3bj scf=xqc pop=npa geom=check

CID_145566366_JID_7759_Energie_kation

1 2

--Link1--
%chk=JID_7759.chk
%mem=8GB
%nprocshared=4
# B3LYP/6-311++G(d,p) empiricaldispersion=gd3bj scf=xqc pop=npa geom=check

CID_145566366_JID_7759_Energie_anion

-1 2
