%chk=JID_1749.chk
%mem=8GB
%nprocshared=4
# opt freq B3LYP/6-31G(d) empiricaldispersion=gd3bj scf=xqc

CID_77686866_JID_1749_neutraal

0 1
C          1.03262        0.04489       -0.08319
O          0.38529       -1.22282        0.02658
C          1.07907       -2.24818       -0.55022
O          2.17533       -2.13708       -1.08751
C          0.31990       -3.56827       -0.36036
C          0.71808       -4.15939        0.99797
C          0.10408       -5.53890        1.20683
C          0.39715       -6.40751        0.01420
C          0.96701       -7.61790        0.12449
C          0.01810       -5.79452       -1.30553
N          0.63837       -4.48554       -1.47910
H          0.39736        0.79249        0.39982
H          1.15624        0.32308       -1.13453
H          1.99877        0.02808        0.43087
H         -0.75514       -3.35065       -0.39394
H          0.39899       -3.49094        1.80715
H          1.81230       -4.22959        1.07188
H         -0.98270       -5.44844        1.32558
H          0.49242       -5.97696        2.13349
H          1.17995       -8.22648       -0.74952
H          1.23835       -8.03260        1.09065
H          0.32004       -6.43671       -2.14085
H         -1.07300       -5.70067       -1.36799
H          1.65366       -4.59571       -1.53063

--Link1--
%chk=JID_1749.chk
%mem=8GB
%nprocshared=4
# B3LYP/6-311++G(d,p) empiricaldispersion=gd3bj scf=xqc pop=npa geom=check

CID_77686866_JID_1749_Energie_neutraal

0 1

--Link1--
%chk=JID_1749.chk
%mem=8GB
%nprocshared=4
# B3LYP/6-311++G(d,p) empiricaldispersion=gd3bj scf=xqc pop=npa geom=check

CID_77686866_JID_1749_Energie_kation

1 2

--Link1--
%chk=JID_1749.chk
%mem=8GB
%nprocshared=4
# B3LYP/6-311++G(d,p) empiricaldispersion=gd3bj scf=xqc pop=npa geom=check

CID_77686866_JID_1749_Energie_anion

-1 2
