%chk=JID_8545.chk
%mem=8GB
%nprocshared=4
# opt freq B3LYP/6-31G(d) empiricaldispersion=gd3bj scf=xqc

CID_81345976_JID_8545_neutraal

0 1
C          0.72100        1.17000        0.25400
C         -0.78442        1.10211        0.00162
O         -1.33421       -0.11289        0.52887
C         -0.67647       -1.25492       -0.06403
C          0.83545       -1.17906        0.18925
O          1.37748        0.04423       -0.34698
C         -1.27697       -2.48165        0.53535
N         -0.73451       -3.36646        1.35173
C         -1.73665       -4.28375        1.58003
C         -1.80479       -5.45129        2.36024
C         -3.01955       -6.17340        2.37122
C         -4.12811       -5.74864        1.62851
C         -4.07190       -4.59242        0.84651
C         -2.86247       -3.90695        0.86101
O         -2.57250       -2.76206        0.18044
C         -0.62377       -5.89018        3.13238
O          0.47966       -5.38296        3.16453
O         -0.88157       -6.99515        3.86102
H          1.14107        2.08041       -0.18350
H          0.93975        1.16991        1.32803
H         -1.00308        1.14543       -1.07162
H         -1.29018        1.94104        0.48865
H         -0.87786       -1.23849       -1.14258
H          1.35486       -2.01292       -0.29495
H          1.07025       -1.21386        1.26066
H         -3.10748       -7.08175        2.96545
H         -5.04904       -6.32871        1.66067
H         -4.91621       -4.24373        0.26431
H         -0.02836       -7.16681        4.31381

--Link1--
%chk=JID_8545.chk
%mem=8GB
%nprocshared=4
# B3LYP/6-311++G(d,p) empiricaldispersion=gd3bj scf=xqc pop=npa geom=check

CID_81345976_JID_8545_Energie_neutraal

0 1

--Link1--
%chk=JID_8545.chk
%mem=8GB
%nprocshared=4
# B3LYP/6-311++G(d,p) empiricaldispersion=gd3bj scf=xqc pop=npa geom=check

CID_81345976_JID_8545_Energie_kation

1 2

--Link1--
%chk=JID_8545.chk
%mem=8GB
%nprocshared=4
# B3LYP/6-311++G(d,p) empiricaldispersion=gd3bj scf=xqc pop=npa geom=check

CID_81345976_JID_8545_Energie_anion

-1 2
