%chk=JID_7066.chk
%mem=8GB
%nprocshared=4
# opt freq B3LYP/6-31G(d) empiricaldispersion=gd3bj scf=xqc

CID_114631795_JID_7066_neutraal

0 1
C          1.01551       -0.01418       -0.09777
C          0.42184       -1.33983       -0.57488
C          1.23806       -2.58385       -0.06865
C         -0.10860       -3.28810        0.19758
C         -0.77515       -1.89517        0.26930
O         -0.96893       -1.35159        1.59304
N          2.02839       -3.22228       -1.08556
C          3.30412       -3.76470       -0.83942
C          3.62239       -4.67222        0.16326
C          4.95248       -5.06415        0.34833
C          5.90826       -4.53960       -0.49045
N          5.59350       -3.68309       -1.47437
N          4.28521       -3.30249       -1.64810
C          2.59523       -5.31367        0.99243
O          1.56525       -5.83771        0.62132
O          2.94675       -5.29005        2.29273
C          0.05647       -1.25222       -2.06371
H          1.27726       -0.04004        0.96520
H          0.30603        0.80717       -0.24523
H          1.92937        0.22297       -0.65343
H          1.80906       -2.38536        0.84803
H         -0.15836       -3.86552        1.12528
H         -0.48453       -3.91284       -0.62121
H         -1.73729       -1.86539       -0.25539
H         -0.15184       -1.53389        2.08597
H          2.18613       -2.61505       -1.89118
H          5.22967       -5.77529        1.11889
H          6.95721       -4.79935       -0.40826
H          2.20953       -5.75397        2.74503
H         -0.71175       -0.48817       -2.22775
H          0.92746       -0.97943       -2.66915
H         -0.33455       -2.20103       -2.44627

--Link1--
%chk=JID_7066.chk
%mem=8GB
%nprocshared=4
# B3LYP/6-311++G(d,p) empiricaldispersion=gd3bj scf=xqc pop=npa geom=check

CID_114631795_JID_7066_Energie_neutraal

0 1

--Link1--
%chk=JID_7066.chk
%mem=8GB
%nprocshared=4
# B3LYP/6-311++G(d,p) empiricaldispersion=gd3bj scf=xqc pop=npa geom=check

CID_114631795_JID_7066_Energie_kation

1 2

--Link1--
%chk=JID_7066.chk
%mem=8GB
%nprocshared=4
# B3LYP/6-311++G(d,p) empiricaldispersion=gd3bj scf=xqc pop=npa geom=check

CID_114631795_JID_7066_Energie_anion

-1 2
