%chk=JID_4023.chk
%mem=8GB
%nprocshared=4
# opt freq B3LYP/6-31G(d) empiricaldispersion=gd3bj scf=xqc

CID_117169744_JID_4023_neutraal

0 1
C          1.08683       -0.00475       -0.04938
C          0.57603        1.35594        0.45684
C          1.04878        2.43625       -0.53894
C         -0.95940        1.35640        0.48390
C          1.17341        1.69316        1.84644
C          0.64308        0.92991        3.06450
O          0.58576       -0.48229        2.86194
C          0.94394       -1.02819        4.12908
C          2.00514       -0.06968        4.61675
O          1.49706        1.20549        4.19107
C          3.35437       -0.34607        3.95747
C          4.40956        0.51703        4.57789
O          4.70946        0.54990        5.75993
O          5.06747        1.27254        3.67856
H          0.81959       -0.15423       -1.10235
H          0.65519       -0.84468        0.50081
H          2.17778       -0.07339        0.02491
H          0.66924        2.24109       -1.54852
H          0.69775        3.43090       -0.24149
H          2.14273        2.47016       -0.59551
H         -1.35480        0.55927        1.12187
H         -1.34673        2.31057        0.85804
H         -1.37074        1.20144       -0.52031
H          2.26310        1.56805        1.79343
H          1.03497        2.76353        2.05566
H         -0.36281        1.28235        3.32044
H          1.28342       -2.06183        4.02220
H          0.05637       -1.00686        4.77183
H          2.08773       -0.08218        5.70828
H          3.66207       -1.38814        4.09906
H          3.32611       -0.15796        2.87912
H          5.70439        1.78792        4.21591

--Link1--
%chk=JID_4023.chk
%mem=8GB
%nprocshared=4
# B3LYP/6-311++G(d,p) empiricaldispersion=gd3bj scf=xqc pop=npa geom=check

CID_117169744_JID_4023_Energie_neutraal

0 1

--Link1--
%chk=JID_4023.chk
%mem=8GB
%nprocshared=4
# B3LYP/6-311++G(d,p) empiricaldispersion=gd3bj scf=xqc pop=npa geom=check

CID_117169744_JID_4023_Energie_kation

1 2

--Link1--
%chk=JID_4023.chk
%mem=8GB
%nprocshared=4
# B3LYP/6-311++G(d,p) empiricaldispersion=gd3bj scf=xqc pop=npa geom=check

CID_117169744_JID_4023_Energie_anion

-1 2
