%chk=JID_8360.chk
%mem=8GB
%nprocshared=4
# opt freq B3LYP/6-31G(d) empiricaldispersion=gd3bj scf=xqc

CID_154237299_JID_8360_neutraal

0 1
C          1.34400       -0.22500        0.03600
C          0.61604        0.90380       -0.32943
C         -0.77177        0.96978       -0.11144
C         -1.44868       -0.13765        0.44206
C         -0.69958       -1.26337        0.83409
C          0.69068       -1.30106        0.62807
C         -1.31980       -2.42047        1.51826
O         -2.11643       -2.28957        2.43443
N         -0.98302       -3.65724        1.03679
O         -2.80201       -0.03042        0.61579
C         -3.64270       -0.98013       -0.05591
C         -3.67296       -0.85208       -1.58919
C         -2.54268       -1.60296       -2.30819
O         -2.63637       -3.00813       -2.05330
O         -4.91526       -1.40299       -2.06065
C         -1.43865        2.24042       -0.52630
O         -0.90513        3.00803       -1.31876
N         -2.65338        2.53630        0.01582
H          2.42060       -0.25068       -0.11811
H          1.13869        1.75127       -0.77337
H          1.27976       -2.15321        0.96059
H         -0.26887       -3.82226        0.34035
H         -1.34751       -4.45813        1.54067
H         -3.45495       -2.00755        0.26289
H         -4.65382       -0.76924        0.31580
H         -3.64800        0.20416       -1.87626
H         -2.65766       -1.48083       -3.39042
H         -1.54459       -1.25414       -2.03933
H         -2.28929       -3.18114       -1.16035
H         -4.75683       -2.35849       -2.20041
H         -3.12006        1.91238        0.66486
H         -3.10863        3.39753       -0.25342

--Link1--
%chk=JID_8360.chk
%mem=8GB
%nprocshared=4
# B3LYP/6-311++G(d,p) empiricaldispersion=gd3bj scf=xqc pop=npa geom=check

CID_154237299_JID_8360_Energie_neutraal

0 1

--Link1--
%chk=JID_8360.chk
%mem=8GB
%nprocshared=4
# B3LYP/6-311++G(d,p) empiricaldispersion=gd3bj scf=xqc pop=npa geom=check

CID_154237299_JID_8360_Energie_kation

1 2

--Link1--
%chk=JID_8360.chk
%mem=8GB
%nprocshared=4
# B3LYP/6-311++G(d,p) empiricaldispersion=gd3bj scf=xqc pop=npa geom=check

CID_154237299_JID_8360_Energie_anion

-1 2
