%chk=JID_2372.chk
%mem=8GB
%nprocshared=4
# opt freq B3LYP/6-31G(d) empiricaldispersion=gd3bj scf=xqc

CID_154609117_JID_2372_neutraal

0 1
C          0.97801        0.06937       -0.06858
C          0.41523        0.18704       -1.48747
C          0.16825        1.68046       -1.81376
N         -0.40178        1.96629       -3.13705
C         -1.55961        1.12419       -3.44707
C         -1.37615       -0.37314       -3.17133
C         -0.85673       -0.61614       -1.76632
C         -1.86936       -0.90116       -0.67355
C         -1.02115       -2.01856       -1.21493
C          0.57038        2.22647       -4.20544
C          1.17929        1.00463       -4.89400
C         -0.05275        3.15093       -5.26321
H          1.20787       -0.96740        0.19221
H          0.28460        0.46399        0.68058
H          1.91116        0.63733        0.01871
H          1.19046       -0.19874       -2.15880
H          1.09136        2.25388       -1.66104
H         -0.53901        2.07995       -1.07346
H         -2.39009        1.48084       -2.82286
H         -1.89949        1.26424       -4.47844
H         -0.67710       -0.81757       -3.88709
H         -2.33748       -0.87953       -3.32431
H         -1.68277       -0.56938        0.34030
H         -2.92413       -0.89661       -0.92949
H         -1.50767       -2.76592       -1.83395
H         -0.25879       -2.43893       -0.57100
H          1.40052        2.80298       -3.77580
H          0.42818        0.42226       -5.43594
H          1.93050        1.32088       -5.62717
H          1.68872        0.34944       -4.18437
H         -0.49835        4.03761       -4.79858
H          0.71458        3.50040       -5.96333
H         -0.82659        2.64700       -5.85130

--Link1--
%chk=JID_2372.chk
%mem=8GB
%nprocshared=4
# B3LYP/6-311++G(d,p) empiricaldispersion=gd3bj scf=xqc pop=npa geom=check

CID_154609117_JID_2372_Energie_neutraal

0 1

--Link1--
%chk=JID_2372.chk
%mem=8GB
%nprocshared=4
# B3LYP/6-311++G(d,p) empiricaldispersion=gd3bj scf=xqc pop=npa geom=check

CID_154609117_JID_2372_Energie_kation

1 2

--Link1--
%chk=JID_2372.chk
%mem=8GB
%nprocshared=4
# B3LYP/6-311++G(d,p) empiricaldispersion=gd3bj scf=xqc pop=npa geom=check

CID_154609117_JID_2372_Energie_anion

-1 2
