%chk=JID_9264.chk
%mem=8GB
%nprocshared=4
# opt freq B3LYP/6-31G(d) empiricaldispersion=gd3bj scf=xqc

CID_61215000_JID_9264_neutraal

0 1
C          2.49600       -0.00700       -0.12600
C          0.98362        0.14694        0.03547
C          0.53033        1.53521       -0.44354
C         -0.99218        1.66144       -0.54471
C         -1.62192        0.53356       -1.40712
C         -1.27427       -0.79145       -0.66002
C          0.24907       -1.00898       -0.66933
N         -1.93591       -2.01229       -1.11737
C         -3.08387       -2.43652       -0.30061
C         -4.35602       -1.57995       -0.42403
C         -4.92540       -1.56582       -1.81014
N         -4.83320       -2.54266       -2.69319
C         -5.48939       -2.10949       -3.81289
C         -5.99691       -0.84944       -3.61744
N         -5.64221       -0.51633       -2.33958
C         -5.97942        0.72021       -1.67885
C         -1.19231        0.68079       -2.91253
C         -1.63250       -0.45331       -3.83879
C         -1.72381        1.99718       -3.50854
H          2.79146        0.04932       -1.17920
H          3.02669        0.78165        0.41771
H          2.83276       -0.97119        0.26916
H          0.75360        0.07797        1.10769
H          0.90438        2.29684        0.25228
H          0.98592        1.76818       -1.41266
H         -1.25700        2.65305       -0.92287
H         -1.41734        1.61911        0.46733
H         -2.70849        0.66848       -1.36563
H         -1.54893       -0.65089        0.39564
H          0.61614       -1.12526       -1.69642
H          0.49414       -1.94419       -0.14766
H         -2.26419       -1.94671       -2.07883
H         -3.32231       -3.46723       -0.59178
H         -2.78561       -2.49446        0.75361
H         -5.11880       -1.99201        0.24820
H         -4.14906       -0.56391       -0.07324
H         -5.55939       -2.72736       -4.69861
H         -6.56383       -0.19184       -4.26106
H         -6.67900        1.28640       -2.29944
H         -6.44724        0.48937       -0.71873
H         -5.06336        1.29765       -1.53575
H         -0.09968        0.71902       -2.97995
H         -2.70830       -0.63094       -3.76899
H         -1.40778       -0.21335       -4.88452
H         -1.09060       -1.37787       -3.62273
H         -1.27138        2.87146       -3.03330
H         -1.48727        2.06939       -4.57598
H         -2.81151        2.06791       -3.40008

--Link1--
%chk=JID_9264.chk
%mem=8GB
%nprocshared=4
# B3LYP/6-311++G(d,p) empiricaldispersion=gd3bj scf=xqc pop=npa geom=check

CID_61215000_JID_9264_Energie_neutraal

0 1

--Link1--
%chk=JID_9264.chk
%mem=8GB
%nprocshared=4
# B3LYP/6-311++G(d,p) empiricaldispersion=gd3bj scf=xqc pop=npa geom=check

CID_61215000_JID_9264_Energie_kation

1 2

--Link1--
%chk=JID_9264.chk
%mem=8GB
%nprocshared=4
# B3LYP/6-311++G(d,p) empiricaldispersion=gd3bj scf=xqc pop=npa geom=check

CID_61215000_JID_9264_Energie_anion

-1 2
