%chk=JID_3767.chk
%mem=8GB
%nprocshared=4
# opt freq B3LYP/6-31G(d) empiricaldispersion=gd3bj scf=xqc

CID_66581280_JID_3767_neutraal

0 1
C          1.00165        0.01354       -0.09907
C          0.45159        0.95528       -1.18588
C          0.90403        0.40045       -2.55578
C         -1.10534        0.99137       -1.16578
C         -1.81505        1.25423        0.18959
C         -1.68206        2.69139        0.71853
C         -2.47063        3.70954       -0.10434
C         -3.94165        3.32116       -0.21883
C         -4.11752        1.89711       -0.73584
C         -3.31390        0.89505        0.09099
C          1.08137        2.34802       -1.02365
O          1.88745        2.63754       -0.14429
N          0.72195        3.29477       -1.93625
H          0.52917       -0.97349       -0.15244
H          0.84176        0.41501        0.90735
H          2.08327       -0.12878       -0.21099
H          0.59477       -0.64333       -2.68234
H          0.47710        0.97236       -3.38724
H          1.99481        0.44180       -2.65878
H         -1.46598        1.70640       -1.91380
H         -1.45067        0.00927       -1.52040
H         -1.38647        0.57797        0.93799
H         -2.06195        2.71650        1.74904
H         -0.63592        2.99644        0.78768
H         -2.03816        3.80384       -1.10618
H         -2.39155        4.69717        0.36448
H         -4.45906        4.02233       -0.88332
H         -4.41626        3.40895        0.76644
H         -3.81190        1.84610       -1.78719
H         -5.17934        1.62679       -0.70523
H         -3.43841       -0.11097       -0.32677
H         -3.73438        0.85976        1.10481
H          0.06488        3.13530       -2.68518
H          1.13234        4.21412       -1.83651

--Link1--
%chk=JID_3767.chk
%mem=8GB
%nprocshared=4
# B3LYP/6-311++G(d,p) empiricaldispersion=gd3bj scf=xqc pop=npa geom=check

CID_66581280_JID_3767_Energie_neutraal

0 1

--Link1--
%chk=JID_3767.chk
%mem=8GB
%nprocshared=4
# B3LYP/6-311++G(d,p) empiricaldispersion=gd3bj scf=xqc pop=npa geom=check

CID_66581280_JID_3767_Energie_kation

1 2

--Link1--
%chk=JID_3767.chk
%mem=8GB
%nprocshared=4
# B3LYP/6-311++G(d,p) empiricaldispersion=gd3bj scf=xqc pop=npa geom=check

CID_66581280_JID_3767_Energie_anion

-1 2
