%chk=JID_4841.chk
%mem=8GB
%nprocshared=4
# opt freq B3LYP/6-31G(d) empiricaldispersion=gd3bj scf=xqc

CID_82728490_JID_4841_neutraal

0 1
C          0.96475        0.05798       -0.07345
C          0.22968       -1.23780        0.21867
C          0.95152       -2.49340       -0.29968
C          0.37936       -3.53983        0.63664
C          0.33548       -2.78814        1.95144
O          0.08260       -1.41022        1.64174
N          0.74197       -2.73091       -1.72821
C          1.51527       -3.86026       -2.26024
C          0.75968       -5.20033       -2.34492
C         -0.47163       -5.13722       -3.25216
C          1.75769       -6.27345       -2.81004
N          2.44813       -7.02663       -1.99614
O          2.18111       -6.74767       -0.65383
N          1.98716       -6.44372       -4.15120
H          0.41971        0.90785        0.35103
H          1.08092        0.21887       -1.14914
H          1.95607        0.05922        0.39261
H         -0.78576       -1.17720       -0.19402
H          2.02633       -2.38352       -0.09854
H          0.97921       -4.45108        0.70453
H         -0.63872       -3.81668        0.33549
H          1.29841       -2.84163        2.47058
H         -0.44278       -3.16308        2.62206
H         -0.24980       -2.83903       -1.92947
H          1.82314       -3.57664       -3.27516
H          2.45478       -3.98300       -1.70581
H          0.39214       -5.48168       -1.35361
H         -0.24112       -4.67584       -4.21834
H         -0.86661       -6.14095       -3.44396
H         -1.27297       -4.55375       -2.78759
H          2.77955       -7.36450       -0.19271
H          1.23496       -6.24532       -4.79753
H          2.48831       -7.30159       -4.35834

--Link1--
%chk=JID_4841.chk
%mem=8GB
%nprocshared=4
# B3LYP/6-311++G(d,p) empiricaldispersion=gd3bj scf=xqc pop=npa geom=check

CID_82728490_JID_4841_Energie_neutraal

0 1

--Link1--
%chk=JID_4841.chk
%mem=8GB
%nprocshared=4
# B3LYP/6-311++G(d,p) empiricaldispersion=gd3bj scf=xqc pop=npa geom=check

CID_82728490_JID_4841_Energie_kation

1 2

--Link1--
%chk=JID_4841.chk
%mem=8GB
%nprocshared=4
# B3LYP/6-311++G(d,p) empiricaldispersion=gd3bj scf=xqc pop=npa geom=check

CID_82728490_JID_4841_Energie_anion

-1 2
