%chk=JID_9289.chk
%mem=8GB
%nprocshared=4
# opt freq B3LYP/6-31G(d) empiricaldispersion=gd3bj scf=xqc

CID_141738307_JID_9289_neutraal

0 1
C          0.91776        0.05639       -0.00751
C          0.37657       -1.34018       -0.27180
C          0.84752       -2.38199        0.74820
C          0.38283       -2.14303        2.18974
C         -1.11323       -2.23735        2.37074
C         -1.88031       -1.07943        2.59019
C         -3.27575       -1.14231        2.75275
C         -3.88491       -2.40738        2.70116
C         -3.13474       -3.56485        2.48486
C         -1.75516       -3.47942        2.31863
C         -4.12497        0.04592        2.98396
N         -5.38361       -0.02140        3.37534
C         -5.92769        1.24478        3.49771
C         -7.24441        1.54352        3.90299
C         -7.66306        2.87585        3.98151
C         -6.78774        3.90869        3.66115
C         -5.47688        3.63767        3.25619
C         -5.06810        2.29550        3.18218
S         -3.54410        1.64786        2.72455
H          0.52329        0.47260        0.92353
H          0.62790        0.73066       -0.81985
H          2.01066        0.04933        0.05214
H         -0.71777       -1.30844       -0.31157
H          0.71353       -1.65782       -1.26611
H          0.51015       -3.37052        0.41223
H          1.94436       -2.41289        0.73920
H          0.85043       -2.89347        2.84086
H          0.75066       -1.17699        2.55470
H         -1.36378       -0.12373        2.63708
H         -4.96296       -2.49677        2.82971
H         -3.62990       -4.53170        2.44750
H         -1.18185       -4.38871        2.15189
H         -7.92313        0.73379        4.15161
H         -8.67955        3.10191        4.29503
H         -7.12569        4.94097        3.72581
H         -4.79464        4.44430        3.00596

--Link1--
%chk=JID_9289.chk
%mem=8GB
%nprocshared=4
# B3LYP/6-311++G(d,p) empiricaldispersion=gd3bj scf=xqc pop=npa geom=check

CID_141738307_JID_9289_Energie_neutraal

0 1

--Link1--
%chk=JID_9289.chk
%mem=8GB
%nprocshared=4
# B3LYP/6-311++G(d,p) empiricaldispersion=gd3bj scf=xqc pop=npa geom=check

CID_141738307_JID_9289_Energie_kation

1 2

--Link1--
%chk=JID_9289.chk
%mem=8GB
%nprocshared=4
# B3LYP/6-311++G(d,p) empiricaldispersion=gd3bj scf=xqc pop=npa geom=check

CID_141738307_JID_9289_Energie_anion

-1 2
