%chk=JID_9861.chk
%mem=8GB
%nprocshared=4
# opt freq B3LYP/6-31G(d) empiricaldispersion=gd3bj scf=xqc

CID_79495802_JID_9861_neutraal

0 1
C          0.96343        0.05645       -0.07400
C          0.41369       -0.77329       -1.22452
C          1.01872       -2.17723       -1.31582
N          0.70530       -2.96033       -0.12176
C          1.03286       -4.40290       -0.25852
C          2.54055       -4.60771       -0.26862
C          3.31575       -4.46456        0.87901
N          4.66248       -4.59362        0.91464
C          5.28964       -4.89720       -0.24372
C          4.60355       -5.07137       -1.44098
C          3.21829       -4.92010       -1.45112
C          6.78016       -5.04990       -0.19898
C          0.30731       -5.28230        0.84851
O         -1.10987       -5.38447        0.67363
C         -1.89504       -4.25429        1.03216
C         -1.80767       -3.89313        2.50518
O          0.85787       -6.61184        0.92009
C          0.51690       -7.46433       -0.16926
C         -0.53917       -8.46309        0.26862
H          0.67718       -0.35979        0.89659
H          0.56832        1.07620       -0.12515
H          2.05562        0.11420       -0.11817
H         -0.67719       -0.84146       -1.13214
H          0.61728       -0.24643       -2.16461
H          0.60185       -2.66306       -2.20600
H          2.10240       -2.09513       -1.45595
H          1.19684       -2.57448        0.68308
H          0.62323       -4.73974       -1.21967
H          2.87058       -4.22471        1.84039
H          5.13520       -5.31691       -2.35427
H          2.67538       -5.04438       -2.38472
H          7.25367       -4.35779       -0.90229
H          7.16437       -4.83111        0.80266
H          7.06253       -6.07515       -0.45702
H          0.52316       -4.85654        1.83317
H         -1.67387       -3.39686        0.39358
H         -2.93284       -4.52914        0.81277
H         -0.84269       -3.43810        2.74792
H         -2.58696       -3.17197        2.76939
H         -1.91896       -4.78311        3.13251
H          0.18194       -6.91061       -1.05187
H          1.42482       -8.00874       -0.44888
H         -1.46688       -7.95943        0.55607
H         -0.76280       -9.16784       -0.53743
H         -0.19834       -9.02490        1.14436

--Link1--
%chk=JID_9861.chk
%mem=8GB
%nprocshared=4
# B3LYP/6-311++G(d,p) empiricaldispersion=gd3bj scf=xqc pop=npa geom=check

CID_79495802_JID_9861_Energie_neutraal

0 1

--Link1--
%chk=JID_9861.chk
%mem=8GB
%nprocshared=4
# B3LYP/6-311++G(d,p) empiricaldispersion=gd3bj scf=xqc pop=npa geom=check

CID_79495802_JID_9861_Energie_kation

1 2

--Link1--
%chk=JID_9861.chk
%mem=8GB
%nprocshared=4
# B3LYP/6-311++G(d,p) empiricaldispersion=gd3bj scf=xqc pop=npa geom=check

CID_79495802_JID_9861_Energie_anion

-1 2
