%chk=JID_7099.chk
%mem=8GB
%nprocshared=4
# opt freq B3LYP/6-31G(d) empiricaldispersion=gd3bj scf=xqc

CID_55092048_JID_7099_neutraal

0 1
C         -2.19800       -0.07500       -0.00500
C         -1.19394        0.17740        1.04235
N         -1.23935       -0.10795        2.32416
N         -0.06112        0.36443        2.86388
C          0.62769        0.89404        1.87397
O         -0.03082        0.79758        0.67351
S          2.17986        1.64386        2.07380
C          3.01353        1.19450        0.52353
C          3.80484       -0.11263        0.61545
C          2.98724       -1.40053        0.77441
N          2.14857       -1.65347       -0.39823
C          1.25886       -2.81847       -0.23654
C          0.33116       -2.89378       -1.46554
C          1.07453       -3.28428       -2.74511
C          1.85126       -4.58653       -2.57125
C          2.76921       -4.54700       -1.35242
C          2.00165       -4.15833       -0.08938
H         -3.18406        0.26541        0.32446
H         -1.94806        0.44962       -0.93200
H         -2.25829       -1.14554       -0.22091
H          2.31469        1.19094       -0.31809
H          3.72565        2.00212        0.31814
H          4.41822       -0.20125       -0.29151
H          4.51779       -0.04690        1.44798
H          3.70583       -2.21829        0.89528
H          2.38545       -1.36166        1.68782
H          1.56744       -0.83813       -0.58691
H          0.63112       -2.65983        0.64953
H         -0.45612       -3.63388       -1.27143
H         -0.18090       -1.93633       -1.62112
H          1.76456       -2.48303       -3.03581
H          0.35669       -3.39375       -3.56606
H          2.44147       -4.78857       -3.47215
H          1.14276       -5.41723       -2.46285
H          3.58613       -3.83701       -1.52783
H          3.23026       -5.53133       -1.21165
H          2.68170       -4.14616        0.76879
H          1.26522       -4.94343        0.12900

--Link1--
%chk=JID_7099.chk
%mem=8GB
%nprocshared=4
# B3LYP/6-311++G(d,p) empiricaldispersion=gd3bj scf=xqc pop=npa geom=check

CID_55092048_JID_7099_Energie_neutraal

0 1

--Link1--
%chk=JID_7099.chk
%mem=8GB
%nprocshared=4
# B3LYP/6-311++G(d,p) empiricaldispersion=gd3bj scf=xqc pop=npa geom=check

CID_55092048_JID_7099_Energie_kation

1 2

--Link1--
%chk=JID_7099.chk
%mem=8GB
%nprocshared=4
# B3LYP/6-311++G(d,p) empiricaldispersion=gd3bj scf=xqc pop=npa geom=check

CID_55092048_JID_7099_Energie_anion

-1 2
