%chk=JID_4060.chk
%mem=8GB
%nprocshared=4
# opt freq B3LYP/6-31G(d) empiricaldispersion=gd3bj scf=xqc

CID_152963998_JID_4060_neutraal

0 1
C          0.94451        0.04148       -0.07211
C          0.36927       -1.34926        0.15894
C          0.89079       -2.01037        1.44031
C          0.03461       -1.89781        2.73686
C         -1.30822       -2.64603        2.59858
C          0.83413       -2.62049        3.85316
N         -0.11553       -0.49713        3.20246
N         -1.23012        0.15537        2.61813
C         -1.36387        1.55316        2.76754
C         -1.02414        2.21405        3.94519
C         -1.20112        3.59393        4.02821
C         -1.72096        4.27740        2.93851
C         -2.04603        3.54566        1.81083
N         -1.88467        2.20791        1.70649
H          0.73088        0.72313        0.75267
H          0.52529        0.47403       -0.98616
H          2.03175       -0.00603       -0.19427
H         -0.72285       -1.32412        0.12689
H          0.67836       -1.96878       -0.69296
H          1.00565       -3.08144        1.21898
H          1.90848       -1.64740        1.64006
H         -1.14225       -3.70492        2.36781
H         -1.88326       -2.60187        3.53117
H         -1.93850       -2.24002        1.80157
H          1.80410       -2.13926        4.02770
H          0.28755       -2.62280        4.80408
H          1.02907       -3.66608        3.58673
H         -0.25427       -0.50841        4.21604
H         -1.40332        0.00318        1.62239
H         -0.62343        1.67068        4.79183
H         -0.93443        4.12564        4.93659
H         -1.87120        5.35036        2.96685
H         -2.45980        4.02955        0.93081

--Link1--
%chk=JID_4060.chk
%mem=8GB
%nprocshared=4
# B3LYP/6-311++G(d,p) empiricaldispersion=gd3bj scf=xqc pop=npa geom=check

CID_152963998_JID_4060_Energie_neutraal

0 1

--Link1--
%chk=JID_4060.chk
%mem=8GB
%nprocshared=4
# B3LYP/6-311++G(d,p) empiricaldispersion=gd3bj scf=xqc pop=npa geom=check

CID_152963998_JID_4060_Energie_kation

1 2

--Link1--
%chk=JID_4060.chk
%mem=8GB
%nprocshared=4
# B3LYP/6-311++G(d,p) empiricaldispersion=gd3bj scf=xqc pop=npa geom=check

CID_152963998_JID_4060_Energie_anion

-1 2
