%chk=JID_7542.chk
%mem=8GB
%nprocshared=4
# opt freq B3LYP/6-31G(d) empiricaldispersion=gd3bj scf=xqc

CID_43245359_JID_7542_neutraal

0 1
C          1.34400       -0.22500        0.03600
C          0.84645        1.06366        0.23447
C         -0.53464        1.29164        0.30774
C         -1.40927        0.19941        0.20343
C         -0.91407       -1.09908        0.01973
C          0.46719       -1.30562       -0.07752
C         -1.89269       -2.21501       -0.08384
O         -3.06733       -2.01807       -0.36887
N         -1.44628       -3.47744        0.19349
C         -1.07220        2.68585        0.53247
N         -0.91243        3.06869        1.93350
C         -1.45736        4.39898        2.21155
C         -2.95904        4.41496        2.24212
C         -3.80593        3.77267        3.12670
C         -5.17959        4.01808        2.84018
C         -5.33829        4.84909        1.75447
S         -3.83915        5.33115        1.08985
H          2.41725       -0.38417       -0.03446
H          1.53898        1.89761        0.33385
H         -2.48515        0.35711        0.26861
H          0.87793       -2.29314       -0.26229
H         -0.57071       -3.65657        0.66189
H         -2.15164       -4.20264        0.22167
H         -0.52885        3.38015       -0.12067
H         -2.12349        2.71508        0.22324
H         -1.38563        2.38262        2.51818
H         -1.09775        4.70673        3.20132
H         -1.05070        5.13436        1.50652
H         -3.45541        3.14935        3.94081
H         -6.00904        3.60666        3.40229
H         -6.26370        5.20019        1.31876

--Link1--
%chk=JID_7542.chk
%mem=8GB
%nprocshared=4
# B3LYP/6-311++G(d,p) empiricaldispersion=gd3bj scf=xqc pop=npa geom=check

CID_43245359_JID_7542_Energie_neutraal

0 1

--Link1--
%chk=JID_7542.chk
%mem=8GB
%nprocshared=4
# B3LYP/6-311++G(d,p) empiricaldispersion=gd3bj scf=xqc pop=npa geom=check

CID_43245359_JID_7542_Energie_kation

1 2

--Link1--
%chk=JID_7542.chk
%mem=8GB
%nprocshared=4
# B3LYP/6-311++G(d,p) empiricaldispersion=gd3bj scf=xqc pop=npa geom=check

CID_43245359_JID_7542_Energie_anion

-1 2
