%chk=JID_10348.chk
%mem=8GB
%nprocshared=4
# opt freq B3LYP/6-31G(d) empiricaldispersion=gd3bj scf=xqc

CID_115966538_JID_10348_neutraal

0 1
C          1.03584        0.06642       -0.06560
C          0.09492        0.94813       -0.88626
C          0.83938        1.80765       -1.92167
C          1.69998        2.91931       -1.29897
C          0.80862        4.15020       -1.33219
N          0.04461        3.97304       -2.55052
C         -0.11027        2.56410       -2.86656
C         -0.62166        4.92653       -3.29474
O         -1.39185        4.65221       -4.21202
C         -0.42729        6.35195       -2.97408
C          0.77588        7.01215       -3.22935
C          0.81883        8.36880       -2.94273
N         -0.22771        9.07943       -2.45353
C         -1.38340        8.40971       -2.25529
C         -1.53513        7.05832       -2.50047
C          1.93048        6.36148       -3.76812
C          2.90485        5.79943       -4.19034
C          4.08725        5.09590       -4.68604
N          5.27730        5.89280       -4.43037
O         -0.82726        0.08496       -1.55247
H          1.61684       -0.59783       -0.71498
H          0.45883       -0.57943        0.60556
H          1.72876        0.65543        0.54037
H         -0.48863        1.58407       -0.21134
H          1.46708        1.13826       -2.52414
H          2.57424        3.09059       -1.93999
H          2.06577        2.70631       -0.29200
H          0.10175        4.15287       -0.49489
H          1.37526        5.08165       -1.31064
H          0.16706        2.41399       -3.91593
H         -1.16362        2.29011       -2.74735
H          1.72235        8.95081       -3.10869
H         -2.21166        9.01097       -1.89026
H         -2.49001        6.56762       -2.34569
H          4.18681        4.12876       -4.18258
H          3.99469        4.90307       -5.75967
H          6.08496        5.42039       -4.83130
H          5.19225        6.77834       -4.92752
H         -0.32178       -0.55338       -2.08468

--Link1--
%chk=JID_10348.chk
%mem=8GB
%nprocshared=4
# B3LYP/6-311++G(d,p) empiricaldispersion=gd3bj scf=xqc pop=npa geom=check

CID_115966538_JID_10348_Energie_neutraal

0 1

--Link1--
%chk=JID_10348.chk
%mem=8GB
%nprocshared=4
# B3LYP/6-311++G(d,p) empiricaldispersion=gd3bj scf=xqc pop=npa geom=check

CID_115966538_JID_10348_Energie_kation

1 2

--Link1--
%chk=JID_10348.chk
%mem=8GB
%nprocshared=4
# B3LYP/6-311++G(d,p) empiricaldispersion=gd3bj scf=xqc pop=npa geom=check

CID_115966538_JID_10348_Energie_anion

-1 2
