%chk=JID_2254.chk
%mem=8GB
%nprocshared=4
# opt freq B3LYP/6-31G(d) empiricaldispersion=gd3bj scf=xqc

CID_148975356_JID_2254_neutraal

0 1
C          0.92052        0.01305       -0.05927
C          0.36232       -0.26598       -1.45726
C          0.92006        0.70346       -2.50804
C          0.01051        1.85864       -2.94830
C         -0.88405        2.40765       -1.82235
C         -1.61210        3.69954       -2.28345
C         -2.80748        4.04294       -1.43741
C         -3.45432        3.10522       -0.73179
C         -3.04938        1.72070       -0.80051
C         -1.85313        1.35916       -1.29788
S         -1.45563       -0.33089       -1.39598
O          0.83833        2.89137       -3.49668
H          0.56512       -0.72814        0.66567
H          0.65313        1.00722        0.31109
H          2.01474       -0.04815       -0.06883
H          0.69457       -1.27577       -1.72753
H          1.89124        1.09298       -2.17412
H          1.16697        0.12941       -3.41280
H         -0.62424        1.51138       -3.77396
H         -0.23285        2.70487       -0.98742
H         -1.94493        3.61055       -3.32535
H         -0.90445        4.53699       -2.24545
H         -3.15006        5.07329       -1.42449
H         -4.32736        3.35318       -0.13541
H         -3.76026        0.98534       -0.43184
H          1.41736        3.22450       -2.78950

--Link1--
%chk=JID_2254.chk
%mem=8GB
%nprocshared=4
# B3LYP/6-311++G(d,p) empiricaldispersion=gd3bj scf=xqc pop=npa geom=check

CID_148975356_JID_2254_Energie_neutraal

0 1

--Link1--
%chk=JID_2254.chk
%mem=8GB
%nprocshared=4
# B3LYP/6-311++G(d,p) empiricaldispersion=gd3bj scf=xqc pop=npa geom=check

CID_148975356_JID_2254_Energie_kation

1 2

--Link1--
%chk=JID_2254.chk
%mem=8GB
%nprocshared=4
# B3LYP/6-311++G(d,p) empiricaldispersion=gd3bj scf=xqc pop=npa geom=check

CID_148975356_JID_2254_Energie_anion

-1 2
