%chk=JID_4058.chk
%mem=8GB
%nprocshared=4
# opt freq B3LYP/6-31G(d) empiricaldispersion=gd3bj scf=xqc

CID_14866896_JID_4058_neutraal

0 1
C          1.69800        0.03400       -0.78800
C          0.72690       -0.17641        0.37400
C         -0.19901       -1.37818        0.11075
C         -1.61971       -0.82594        0.00407
C         -1.44380        0.66844       -0.28300
C         -0.20860        1.03289        0.55439
C         -0.51683        1.21482        2.03019
O         -0.48958        2.30705        2.58940
C         -2.71288        1.50344       -0.03534
C         -2.49165        3.00080       -0.25801
C         -3.84315        1.00706       -0.92389
O         -4.77371        0.32473       -0.51463
O         -3.64654        1.36039       -2.22355
C         -4.65547        0.88737       -3.11642
H          2.34417       -0.84148       -0.91230
H          1.17175        0.20123       -1.73354
H          2.34102        0.90040       -0.60088
H          1.32184       -0.35984        1.27746
H          0.07590       -1.90986       -0.80727
H         -0.13961       -2.10314        0.93046
H         -2.15448       -0.98594        0.94795
H         -2.18391       -1.33550       -0.78383
H         -1.16988        0.76780       -1.34381
H          0.25450        1.96078        0.19914
H         -0.81784        0.30946        2.58509
H         -3.05553        1.37001        0.99895
H         -2.04386        3.20023       -1.23779
H         -3.44125        3.54542       -0.21158
H         -1.83019        3.42413        0.50299
H         -4.67049       -0.20687       -3.13011
H         -5.63507        1.28684       -2.83616
H         -4.41129        1.24276       -4.12134

--Link1--
%chk=JID_4058.chk
%mem=8GB
%nprocshared=4
# B3LYP/6-311++G(d,p) empiricaldispersion=gd3bj scf=xqc pop=npa geom=check

CID_14866896_JID_4058_Energie_neutraal

0 1

--Link1--
%chk=JID_4058.chk
%mem=8GB
%nprocshared=4
# B3LYP/6-311++G(d,p) empiricaldispersion=gd3bj scf=xqc pop=npa geom=check

CID_14866896_JID_4058_Energie_kation

1 2

--Link1--
%chk=JID_4058.chk
%mem=8GB
%nprocshared=4
# B3LYP/6-311++G(d,p) empiricaldispersion=gd3bj scf=xqc pop=npa geom=check

CID_14866896_JID_4058_Energie_anion

-1 2
