%chk=JID_9456.chk
%mem=8GB
%nprocshared=4
# opt freq B3LYP/6-31G(d) empiricaldispersion=gd3bj scf=xqc

CID_61089818_JID_9456_neutraal

0 1
C          1.85400        1.50000       -0.02200
C          0.67116        0.57504       -0.09840
C          0.78748       -0.72497       -0.62397
C         -0.34800       -1.55512       -0.67486
C         -1.58725       -1.11939       -0.20160
C         -1.70076        0.18720        0.27680
C         -0.58297        1.02298        0.33654
N         -2.76077       -1.89563       -0.22829
C         -2.96344       -3.24428       -0.41058
O         -4.07518       -3.65921       -0.73608
C         -1.90036       -4.22944       -0.12582
C         -1.68564       -5.26685       -1.03796
C         -0.74194       -6.25444       -0.76126
C          0.05451       -6.12348        0.38428
C         -0.12749       -5.06949        1.28887
C         -1.16370       -4.16552        1.06254
N          0.56847       -5.05339        2.50463
N         -0.44174       -7.23076       -1.72144
C          2.10096       -1.24802       -1.14032
H          2.66691        1.03621        0.54561
H          2.20589        1.74891       -1.02808
H          1.59852        2.43751        0.48340
H         -0.24131       -2.53358       -1.13229
H         -2.65553        0.56844        0.63028
H         -0.70111        2.03100        0.72883
H         -3.63679       -1.38769       -0.18676
H         -2.27243       -5.30505       -1.95230
H          0.82752       -6.86216        0.57940
H         -1.38376       -3.39345        1.79457
H          1.47612       -5.50686        2.46382
H          0.61957       -4.13444        2.93500
H         -0.01462       -8.06559       -1.33110
H         -1.22602       -7.45624       -2.32741
H          2.83619       -1.29082       -0.33065
H          2.00051       -2.25934       -1.54860
H          2.47727       -0.60646       -1.94338

--Link1--
%chk=JID_9456.chk
%mem=8GB
%nprocshared=4
# B3LYP/6-311++G(d,p) empiricaldispersion=gd3bj scf=xqc pop=npa geom=check

CID_61089818_JID_9456_Energie_neutraal

0 1

--Link1--
%chk=JID_9456.chk
%mem=8GB
%nprocshared=4
# B3LYP/6-311++G(d,p) empiricaldispersion=gd3bj scf=xqc pop=npa geom=check

CID_61089818_JID_9456_Energie_kation

1 2

--Link1--
%chk=JID_9456.chk
%mem=8GB
%nprocshared=4
# B3LYP/6-311++G(d,p) empiricaldispersion=gd3bj scf=xqc pop=npa geom=check

CID_61089818_JID_9456_Energie_anion

-1 2
