%chk=JID_6498.chk
%mem=8GB
%nprocshared=4
# opt freq B3LYP/6-31G(d) empiricaldispersion=gd3bj scf=xqc

CID_143590941_JID_6498_neutraal

0 1
C          1.06769       -0.06628        0.03202
C          0.68526       -1.15517        0.98261
C          0.56352       -2.43627        0.61733
C          0.18266       -3.43480        1.63003
O          0.11068       -4.62167        1.32935
C         -0.08150       -2.95025        3.00927
C          0.07590       -1.63324        3.24742
O          0.46624       -0.72265        2.27717
C         -0.17359       -0.98814        4.52901
C          0.61790       -1.18315        5.59614
C         -1.36241       -0.06731        4.57285
C         -0.53495       -3.92717        3.97573
C          0.27798       -4.64768        4.76828
N         -1.98403       -4.15355        4.08703
O         -2.71866       -3.49811        3.33313
O         -2.39454       -4.95793        4.93674
H          0.27530        0.68740       -0.01769
H          1.23649       -0.44550       -0.98116
H          1.98857        0.42175        0.36697
H          0.73253       -2.79260       -0.39034
H          0.42085       -0.68489        6.54132
H          1.49369       -1.82354        5.55806
H         -1.23384        0.76794        3.87607
H         -2.27762       -0.60580        4.30436
H         -1.51193        0.35688        5.57171
H         -0.09078       -5.38269        5.47835
H          1.35568       -4.53169        4.71332

--Link1--
%chk=JID_6498.chk
%mem=8GB
%nprocshared=4
# B3LYP/6-311++G(d,p) empiricaldispersion=gd3bj scf=xqc pop=npa geom=check

CID_143590941_JID_6498_Energie_neutraal

0 1

--Link1--
%chk=JID_6498.chk
%mem=8GB
%nprocshared=4
# B3LYP/6-311++G(d,p) empiricaldispersion=gd3bj scf=xqc pop=npa geom=check

CID_143590941_JID_6498_Energie_kation

1 2

--Link1--
%chk=JID_6498.chk
%mem=8GB
%nprocshared=4
# B3LYP/6-311++G(d,p) empiricaldispersion=gd3bj scf=xqc pop=npa geom=check

CID_143590941_JID_6498_Energie_anion

-1 2
