%chk=JID_5568.chk
%mem=8GB
%nprocshared=4
# opt freq B3LYP/6-31G(d) empiricaldispersion=gd3bj scf=xqc

CID_65176201_JID_5568_neutraal

0 1
C          1.07181       -0.04346       -0.05435
C          1.06394        0.83469       -1.29332
O          2.07630        0.48175       -2.22971
C          3.42781        0.68761       -1.82069
C          3.82932        2.16329       -1.78926
C          3.83785        2.76807       -0.38286
N          4.97500        2.27391        0.39106
C          5.07495        2.61186        1.74811
C          5.92873        1.85288        2.56491
C          6.12949        2.17059        3.91451
C          5.47385        3.27251        4.46277
C          4.65768        4.06482        3.65886
C          4.47577        3.74457        2.30999
S          7.19393        1.13584        4.90478
C          8.43658        2.36065        5.39491
H          1.09396       -1.10257       -0.33014
H          0.18312        0.14587        0.55502
H          1.95092        0.14953        0.56740
H          0.10676        0.69843       -1.80834
H          1.12869        1.89555       -1.03628
H          3.63884        0.15850       -0.88711
H          4.03439        0.19524       -2.58964
H          4.83710        2.26389       -2.21188
H          3.15006        2.74442       -2.42401
H          3.92302        3.85575       -0.49165
H          2.89979        2.55148        0.13718
H          5.18036        1.28866        0.24577
H          6.44889        0.99649        2.14168
H          5.59263        3.52567        5.51262
H          4.16376        4.93715        4.07891
H          3.85229        4.40236        1.71243
H          8.87115        2.84025        4.51347
H          7.99859        3.12210        6.04543
H          9.23579        1.85688        5.94524

--Link1--
%chk=JID_5568.chk
%mem=8GB
%nprocshared=4
# B3LYP/6-311++G(d,p) empiricaldispersion=gd3bj scf=xqc pop=npa geom=check

CID_65176201_JID_5568_Energie_neutraal

0 1

--Link1--
%chk=JID_5568.chk
%mem=8GB
%nprocshared=4
# B3LYP/6-311++G(d,p) empiricaldispersion=gd3bj scf=xqc pop=npa geom=check

CID_65176201_JID_5568_Energie_kation

1 2

--Link1--
%chk=JID_5568.chk
%mem=8GB
%nprocshared=4
# B3LYP/6-311++G(d,p) empiricaldispersion=gd3bj scf=xqc pop=npa geom=check

CID_65176201_JID_5568_Energie_anion

-1 2
