%chk=JID_8074.chk
%mem=8GB
%nprocshared=4
# opt freq B3LYP/6-31G(d) empiricaldispersion=gd3bj scf=xqc

CID_89943912_JID_8074_neutraal

0 1
C          0.76500        1.41000       -0.30500
C         -0.74844        1.17051       -0.43361
N         -1.13817       -0.14521        0.12445
C         -0.48214       -1.20609       -0.67273
C          1.04217       -1.00299       -0.75034
C          1.45478        0.13047        0.21090
C          0.89477       -0.25052        1.60799
C         -0.65001       -0.20651        1.52701
N          1.39948        0.50370        2.73981
C          1.22285        0.20990        4.06390
C          1.90295        1.21076        4.71941
N          2.47577        2.04298        3.79572
N          2.17214        1.59122        2.58613
C          2.01620        1.39004        6.19369
C          1.44837        0.56414        7.14273
C          1.72862        0.99934        8.47323
C          2.49974        2.13986        8.49023
S          2.88213        2.67710        6.91224
H          1.17652        1.68588       -1.28353
H          0.95117        2.25499        0.36543
H         -1.29750        1.96934        0.08028
H         -1.05414        1.23304       -1.48563
H         -0.70914       -2.18662       -0.23566
H         -0.90654       -1.22783       -1.68406
H          1.33646       -0.75019       -1.77621
H          1.55644       -1.93445       -0.48613
H          2.54364        0.24710        0.22134
H          1.20421       -1.28558        1.81552
H         -1.06393        0.64091        2.08984
H         -1.06303       -1.10307        2.00744
H          0.64783       -0.63832        4.40165
H          0.85672       -0.31227        6.91109
H          1.38130        0.50145        9.37029
H          2.85908        2.68656        9.35128

--Link1--
%chk=JID_8074.chk
%mem=8GB
%nprocshared=4
# B3LYP/6-311++G(d,p) empiricaldispersion=gd3bj scf=xqc pop=npa geom=check

CID_89943912_JID_8074_Energie_neutraal

0 1

--Link1--
%chk=JID_8074.chk
%mem=8GB
%nprocshared=4
# B3LYP/6-311++G(d,p) empiricaldispersion=gd3bj scf=xqc pop=npa geom=check

CID_89943912_JID_8074_Energie_kation

1 2

--Link1--
%chk=JID_8074.chk
%mem=8GB
%nprocshared=4
# B3LYP/6-311++G(d,p) empiricaldispersion=gd3bj scf=xqc pop=npa geom=check

CID_89943912_JID_8074_Energie_anion

-1 2
