%chk=JID_3028.chk
%mem=8GB
%nprocshared=4
# opt freq B3LYP/6-31G(d) empiricaldispersion=gd3bj scf=xqc

CID_130579504_JID_3028_neutraal

0 1
C          1.05810        0.06952        0.04231
N          0.46409       -1.01953        0.80130
C         -0.99472       -0.90836        0.95640
C         -1.78435       -1.17910       -0.35819
C         -3.29120       -1.02964       -0.21509
C         -3.78763       -2.43890        0.02785
O         -2.80562       -3.33693       -0.49892
C         -1.67135       -2.58031       -0.93813
C         -1.40403       -1.72706        2.14582
C         -2.12934       -1.31942        3.18615
O         -2.34888       -2.23945        4.18675
C         -1.82933       -3.46673        3.63589
C         -0.98030       -3.12609        2.41393
H          0.81694        1.04270        0.48169
H          0.74575        0.06001       -1.00567
H          2.14781       -0.03287        0.06017
H          0.71486       -1.91115        0.38174
H         -1.20918        0.13692        1.22571
H         -1.43012       -0.45472       -1.10185
H         -3.70465       -0.67079       -1.16652
H         -3.61136       -0.32428        0.55709
H         -3.91020       -2.65347        1.09318
H         -4.74784       -2.62490       -0.46281
H         -1.72245       -2.53996       -2.03258
H         -0.75361       -3.11159       -0.67562
H         -2.55224       -0.34587        3.37261
H         -2.68023       -4.10176        3.36087
H         -1.24741       -3.98772        4.40325
H          0.08634       -3.17334        2.65822
H         -1.18097       -3.82339        1.59849

--Link1--
%chk=JID_3028.chk
%mem=8GB
%nprocshared=4
# B3LYP/6-311++G(d,p) empiricaldispersion=gd3bj scf=xqc pop=npa geom=check

CID_130579504_JID_3028_Energie_neutraal

0 1

--Link1--
%chk=JID_3028.chk
%mem=8GB
%nprocshared=4
# B3LYP/6-311++G(d,p) empiricaldispersion=gd3bj scf=xqc pop=npa geom=check

CID_130579504_JID_3028_Energie_kation

1 2

--Link1--
%chk=JID_3028.chk
%mem=8GB
%nprocshared=4
# B3LYP/6-311++G(d,p) empiricaldispersion=gd3bj scf=xqc pop=npa geom=check

CID_130579504_JID_3028_Energie_anion

-1 2
