%chk=JID_8060.chk
%mem=8GB
%nprocshared=4
# opt freq B3LYP/6-31G(d) empiricaldispersion=gd3bj scf=xqc

CID_65407124_JID_8060_neutraal

0 1
C          0.99666       -0.07592       -0.06500
O          1.92518        0.41718        0.89350
C          1.99815       -0.39203        2.07302
C          0.88094       -0.08761        3.07348
O         -0.35463       -0.63905        2.61206
C         -1.40297       -0.49659        3.57086
C         -2.75094       -0.63390        2.85291
C         -3.40407        0.69977        2.37436
C         -3.84802        1.55443        3.61222
C         -3.53108        2.95560        3.20148
C         -3.88403        4.12495        3.85726
C         -3.43465        5.34074        3.33777
C         -2.63924        5.37180        2.18385
C         -2.28533        4.18752        1.53443
C         -2.74461        2.98658        2.05327
C         -2.43302        1.60845        1.55704
C         -4.68697        0.38118        1.54303
N         -4.45981       -0.46082        0.36932
H          1.11021        0.51475       -0.97849
H         -0.03142        0.04041        0.28100
H          1.20293       -1.12304       -0.30627
H          2.01559       -1.45352        1.80124
H          2.95674       -0.15111        2.54450
H          1.12942       -0.53488        4.04229
H          0.76479        0.99606        3.18726
H         -1.29151       -1.30864        4.29785
H         -1.31680        0.45460        4.10513
H         -2.61940       -1.31148        2.00093
H         -3.45564       -1.11878        3.54131
H         -4.91565        1.44328        3.83033
H         -3.28594        1.31063        4.51856
H         -4.48551        4.10105        4.75985
H         -3.69374        6.27070        3.83803
H         -2.28550        6.32492        1.79831
H         -1.65279        4.20974        0.65295
H         -1.38097        1.41274        1.76415
H         -2.59070        1.54364        0.47720
H         -5.41061       -0.13877        2.18274
H         -5.16784        1.31066        1.21486
H         -5.34785       -0.62172       -0.10528
H         -3.86989        0.02539       -0.30366

--Link1--
%chk=JID_8060.chk
%mem=8GB
%nprocshared=4
# B3LYP/6-311++G(d,p) empiricaldispersion=gd3bj scf=xqc pop=npa geom=check

CID_65407124_JID_8060_Energie_neutraal

0 1

--Link1--
%chk=JID_8060.chk
%mem=8GB
%nprocshared=4
# B3LYP/6-311++G(d,p) empiricaldispersion=gd3bj scf=xqc pop=npa geom=check

CID_65407124_JID_8060_Energie_kation

1 2

--Link1--
%chk=JID_8060.chk
%mem=8GB
%nprocshared=4
# B3LYP/6-311++G(d,p) empiricaldispersion=gd3bj scf=xqc pop=npa geom=check

CID_65407124_JID_8060_Energie_anion

-1 2
