%chk=JID_5913.chk
%mem=8GB
%nprocshared=4
# opt freq B3LYP/6-31G(d) empiricaldispersion=gd3bj scf=xqc

CID_123552074_JID_5913_neutraal

0 1
C          0.96697        0.04579        0.08253
C          0.59961       -1.28159        0.75564
C          1.58515       -1.53270        1.90879
C         -0.81604       -1.21667        1.34389
O          0.73063       -2.43772       -0.08420
C          0.31564       -2.37215       -1.44280
C          0.51786       -3.77674       -2.10045
C         -0.22624       -4.87022       -1.29332
C         -0.05694       -3.78502       -3.53216
C          2.01828       -4.16830       -2.10454
C          2.83823       -3.43935       -3.14400
O          3.11981       -2.25179       -3.09990
O          3.17836       -4.29406       -4.15005
C          3.92013       -3.69313       -5.21171
O         -1.03654       -1.96014       -1.54297
H          0.96801        0.87242        0.80128
H          0.26048        0.30238       -0.71386
H          1.95904       -0.01296       -0.37903
H          1.56023       -0.72767        2.65077
H          1.36067       -2.47831        2.41640
H          2.61007       -1.62134        1.52956
H         -1.55550       -0.91655        0.59586
H         -1.12696       -2.19753        1.72103
H         -0.87603       -0.49278        2.16386
H          0.92180       -1.63193       -1.97266
H         -1.30526       -4.69109       -1.25548
H         -0.08457       -5.85746       -1.74922
H          0.14222       -4.93100       -0.26354
H          0.35808       -2.97210       -4.13773
H          0.16443       -4.73074       -4.04004
H         -1.14602       -3.66484       -3.52789
H          2.48894       -3.99733       -1.12908
H          2.12443       -5.24609       -2.28994
H          3.33497       -2.89986       -5.68682
H          4.87466       -3.30696       -4.84191
H          4.12494       -4.46546       -5.95885
H         -1.56539       -2.65387       -1.12100

--Link1--
%chk=JID_5913.chk
%mem=8GB
%nprocshared=4
# B3LYP/6-311++G(d,p) empiricaldispersion=gd3bj scf=xqc pop=npa geom=check

CID_123552074_JID_5913_Energie_neutraal

0 1

--Link1--
%chk=JID_5913.chk
%mem=8GB
%nprocshared=4
# B3LYP/6-311++G(d,p) empiricaldispersion=gd3bj scf=xqc pop=npa geom=check

CID_123552074_JID_5913_Energie_kation

1 2

--Link1--
%chk=JID_5913.chk
%mem=8GB
%nprocshared=4
# B3LYP/6-311++G(d,p) empiricaldispersion=gd3bj scf=xqc pop=npa geom=check

CID_123552074_JID_5913_Energie_anion

-1 2
