%chk=JID_9762.chk
%mem=8GB
%nprocshared=4
# opt freq B3LYP/6-31G(d) empiricaldispersion=gd3bj scf=xqc

CID_134207345_JID_9762_neutraal

0 1
C          1.05581       -0.04741        0.06810
C          0.22324       -0.06103       -1.20156
C          0.57192       -1.20949       -2.15005
C          0.33590       -2.62810       -1.61623
C         -1.11179       -2.89576       -1.18690
C         -1.63060       -4.26593       -1.62824
C         -0.98797       -5.51152       -0.99313
C         -1.56807       -6.06823        0.34494
C         -3.10865       -5.93296        0.38147
C         -1.26134       -7.58524        0.39226
C         -1.01176       -5.36655        1.62162
C          0.42421       -5.68994        2.07800
C          1.52465       -4.74618        1.58802
C          1.40152       -3.32404        2.12467
O          1.54641       -3.32213        3.53573
S          0.47019       -2.48552        4.41526
O          0.22726       -1.21003        3.78191
O         -0.59999       -3.38895        4.76952
O          1.29148       -2.21748        5.77309
H          0.80233       -0.89194        0.71000
H          0.86160        0.86791        0.63634
H          2.12596       -0.08702       -0.15711
H         -0.84017       -0.08508       -0.94039
H          0.39014        0.88337       -1.73400
H         -0.01169       -1.08282       -3.07083
H          1.62570       -1.12148       -2.44330
H          0.63037       -3.32648       -2.40937
H          1.00976       -2.82244       -0.77692
H         -1.21407       -2.76996       -0.10525
H         -1.77116       -2.14872       -1.64627
H         -2.71828       -4.28433       -1.51343
H         -1.47081       -4.33547       -2.71368
H         -1.12060       -6.30354       -1.74552
H          0.09504       -5.38522       -0.91925
H         -3.56569       -6.33369       -0.53035
H         -3.53355       -6.48521        1.22830
H         -3.41954       -4.88874        0.49464
H         -0.20440       -7.79289        0.19560
H         -1.52153       -8.01449        1.36633
H         -1.83630       -8.12688       -0.36850
H         -1.16573       -4.28716        1.54708
H         -1.65429       -5.67973        2.45835
H          0.43429       -5.67161        3.17592
H          0.70234       -6.71390        1.81562
H          2.48427       -5.15810        1.92583
H          1.55752       -4.72991        0.49697
H          2.20696       -2.70853        1.71074
H          0.45236       -2.87957        1.81425
H          1.37554       -3.06892        6.24531

--Link1--
%chk=JID_9762.chk
%mem=8GB
%nprocshared=4
# B3LYP/6-311++G(d,p) empiricaldispersion=gd3bj scf=xqc pop=npa geom=check

CID_134207345_JID_9762_Energie_neutraal

0 1

--Link1--
%chk=JID_9762.chk
%mem=8GB
%nprocshared=4
# B3LYP/6-311++G(d,p) empiricaldispersion=gd3bj scf=xqc pop=npa geom=check

CID_134207345_JID_9762_Energie_kation

1 2

--Link1--
%chk=JID_9762.chk
%mem=8GB
%nprocshared=4
# B3LYP/6-311++G(d,p) empiricaldispersion=gd3bj scf=xqc pop=npa geom=check

CID_134207345_JID_9762_Energie_anion

-1 2
