%chk=JID_8874.chk
%mem=8GB
%nprocshared=4
# opt freq B3LYP/6-31G(d) empiricaldispersion=gd3bj scf=xqc

CID_44563029_JID_8874_neutraal

0 1
C          2.49200        0.00400       -0.01400
C          1.03783        0.15309       -0.34837
C          0.23003       -0.97824       -0.51888
C         -1.12884       -0.83832       -0.80903
C         -1.69613        0.43214       -0.90664
C         -0.89821        1.56520       -0.74021
C          0.46081        1.42506       -0.45006
O         -3.03238        0.48423       -1.23859
C         -3.78646        1.47324       -0.64534
C         -3.99187        1.45343        0.73898
C         -4.80643        2.41410        1.33549
C         -5.42761        3.38286        0.54969
C         -5.23840        3.39073       -0.83443
C         -4.41875        2.43188       -1.45326
C         -4.21513        2.46016       -2.95320
N         -2.93689        3.07141       -3.35994
C         -2.64593        2.74619       -4.75585
C         -2.93252        4.52086       -3.16920
H          2.62003       -0.07809        1.06981
H          2.91160       -0.88886       -0.48974
H          3.06751        0.86365       -0.37353
H          0.65549       -1.97545       -0.43517
H         -1.74604       -1.71983       -0.95733
H         -1.31881        2.56058       -0.85295
H          1.06729        2.31782       -0.31742
H         -3.52053        0.68825        1.34940
H         -4.96030        2.40313        2.41107
H         -6.06366        4.13203        1.01423
H         -5.73225        4.15384       -1.43164
H         -4.26488        1.42020       -3.30431
H         -5.06124        2.96592       -3.43872
H         -3.41069        3.13367       -5.43854
H         -1.67538        3.15833       -5.05413
H         -2.57610        1.66129       -4.89341
H         -3.73421        5.01481       -3.72982
H         -3.03339        4.78361       -2.11147
H         -1.97642        4.94726       -3.49414

--Link1--
%chk=JID_8874.chk
%mem=8GB
%nprocshared=4
# B3LYP/6-311++G(d,p) empiricaldispersion=gd3bj scf=xqc pop=npa geom=check

CID_44563029_JID_8874_Energie_neutraal

0 1

--Link1--
%chk=JID_8874.chk
%mem=8GB
%nprocshared=4
# B3LYP/6-311++G(d,p) empiricaldispersion=gd3bj scf=xqc pop=npa geom=check

CID_44563029_JID_8874_Energie_kation

1 2

--Link1--
%chk=JID_8874.chk
%mem=8GB
%nprocshared=4
# B3LYP/6-311++G(d,p) empiricaldispersion=gd3bj scf=xqc pop=npa geom=check

CID_44563029_JID_8874_Energie_anion

-1 2
