%chk=JID_8256.chk
%mem=8GB
%nprocshared=4
# opt freq B3LYP/6-31G(d) empiricaldispersion=gd3bj scf=xqc

CID_82333120_JID_8256_neutraal

0 1
C          1.02937        0.05977        0.07460
C          0.56033        1.47503        0.24647
C          1.38389        2.54002       -0.15457
C          0.91959        3.85752       -0.01938
C         -0.35036        4.09017        0.49552
C         -1.19941        3.04906        0.89164
C         -0.71963        1.73998        0.75053
N         -0.47234        5.46449        0.48732
C          0.69700        5.99487       -0.02182
N          1.54781        5.03399       -0.33010
C          0.98403        7.45885       -0.17237
C          1.95193        7.95836        0.91246
N          3.32720        7.51533        0.65258
C          4.18866        7.75250        1.79959
C         -1.65214        6.20726        0.91296
C         -1.48725        6.87334        2.26134
C         -1.63970        8.19918        2.42431
C         -1.18333        5.97498        3.42960
H          0.73465       -0.31474       -0.91048
H          0.59958       -0.58987        0.84431
H          2.11865       -0.00511        0.16683
H          2.37283        2.36795       -0.56590
H         -2.19046        3.23150        1.29188
H         -1.36560        0.91383        1.04410
H          1.40732        7.63871       -1.16873
H          0.06403        8.04886       -0.12894
H          1.93521        9.05443        0.91923
H          1.61224        7.61098        1.89614
H          3.30466        6.51056        0.43903
H          3.85318        7.19109        2.67769
H          5.20739        7.42963        1.56396
H          4.22952        8.81749        2.04981
H         -1.87846        6.92915        0.11968
H         -2.50224        5.51756        0.94698
H         -1.53259        8.66774        3.39915
H         -1.87759        8.85693        1.59314
H         -1.93305        5.18062        3.50338
H         -0.19534        5.51718        3.32016
H         -1.18909        6.52190        4.37861

--Link1--
%chk=JID_8256.chk
%mem=8GB
%nprocshared=4
# B3LYP/6-311++G(d,p) empiricaldispersion=gd3bj scf=xqc pop=npa geom=check

CID_82333120_JID_8256_Energie_neutraal

0 1

--Link1--
%chk=JID_8256.chk
%mem=8GB
%nprocshared=4
# B3LYP/6-311++G(d,p) empiricaldispersion=gd3bj scf=xqc pop=npa geom=check

CID_82333120_JID_8256_Energie_kation

1 2

--Link1--
%chk=JID_8256.chk
%mem=8GB
%nprocshared=4
# B3LYP/6-311++G(d,p) empiricaldispersion=gd3bj scf=xqc pop=npa geom=check

CID_82333120_JID_8256_Energie_anion

-1 2
