%chk=JID_7418.chk
%mem=8GB
%nprocshared=4
# opt freq B3LYP/6-31G(d) empiricaldispersion=gd3bj scf=xqc

CID_66384988_JID_7418_neutraal

0 1
C         -2.26000       -0.06700        0.00100
C         -0.79653       -0.11816        0.21888
C          0.18042        0.86237        0.17081
C          1.38180        0.14811        0.39608
N          1.17887       -1.15092        0.62240
N         -0.14916       -1.28562        0.51617
C          0.00329        2.31674       -0.12522
C          0.39955        3.26727        1.01208
C          1.90573        3.46725        1.23032
N          2.55781        4.02205        0.04084
C          4.01562        4.12834        0.20869
C          4.69899        2.79920        0.04758
C          4.70854        1.94355       -1.03642
C          5.42002        0.74214       -0.78359
C          5.96855        0.72567        0.47930
S          5.61736        2.15373        1.34927
N          4.08576        2.18897       -2.20807
H         -2.68996       -1.06985       -0.08955
H         -2.75094        0.43943        0.83797
H         -2.49381        0.48006       -0.91785
H          2.39812        0.51903        0.40463
H         -0.54783       -2.20985        0.64200
H          0.52689        2.56171       -1.05505
H         -1.05880        2.49789       -0.33730
H         -0.04659        4.24924        0.80491
H         -0.04655        2.92053        1.95318
H          2.03573        4.16745        2.06472
H          2.36008        2.52194        1.53793
H          2.40266        3.39352       -0.74806
H          4.39265        4.79788       -0.57438
H          4.25947        4.61373        1.16123
H          5.52920       -0.07692       -1.48265
H          6.55725       -0.05877        0.93423
H          4.24399        1.58560       -3.01112
H          3.83305        3.13548       -2.47950

--Link1--
%chk=JID_7418.chk
%mem=8GB
%nprocshared=4
# B3LYP/6-311++G(d,p) empiricaldispersion=gd3bj scf=xqc pop=npa geom=check

CID_66384988_JID_7418_Energie_neutraal

0 1

--Link1--
%chk=JID_7418.chk
%mem=8GB
%nprocshared=4
# B3LYP/6-311++G(d,p) empiricaldispersion=gd3bj scf=xqc pop=npa geom=check

CID_66384988_JID_7418_Energie_kation

1 2

--Link1--
%chk=JID_7418.chk
%mem=8GB
%nprocshared=4
# B3LYP/6-311++G(d,p) empiricaldispersion=gd3bj scf=xqc pop=npa geom=check

CID_66384988_JID_7418_Energie_anion

-1 2
