%chk=JID_6172.chk
%mem=8GB
%nprocshared=4
# opt freq B3LYP/6-31G(d) empiricaldispersion=gd3bj scf=xqc

CID_121015165_JID_6172_neutraal

0 1
C          1.05496        0.08112       -0.01996
C          0.01321        0.19282        1.08377
C          0.13997        1.47370        1.90908
C          0.05198        2.74596        1.07621
N          1.00809        3.60486        1.21820
C          0.92345        4.84176        0.42034
C         -0.04145        4.81708       -0.71638
C         -0.06057        5.73294       -1.73930
N         -0.93924        5.68017       -2.75696
C         -1.83649        4.67612       -2.72235
N         -1.91638        3.75047       -1.74838
C         -1.00941        3.84089       -0.76405
N         -1.02457        2.88428        0.24379
C         -2.77249        4.53439       -3.89120
C         -2.11223        3.85487       -5.09374
C         -1.75800        2.39448       -4.84414
H          0.92842        0.86239       -0.77538
H          0.96491       -0.88631       -0.52433
H          2.06769        0.15688        0.38853
H         -0.98595        0.12115        0.63980
H          0.11703       -0.66646        1.75702
H         -0.66246        1.50850        2.65517
H          1.09090        1.46695        2.45552
H          0.66461        5.66781        1.09307
H          1.92632        5.04127        0.02497
H          0.65200        6.55116       -1.78491
H         -1.70753        2.15527        0.10437
H         -3.66416        3.97485       -3.58411
H         -3.11362        5.53423       -4.18495
H         -2.80460        3.90197       -5.94266
H         -1.20715        4.39871       -5.38986
H         -2.63759        1.82438       -4.52888
H         -1.37069        1.93989       -5.76169
H         -0.98646        2.29404       -4.07459

--Link1--
%chk=JID_6172.chk
%mem=8GB
%nprocshared=4
# B3LYP/6-311++G(d,p) empiricaldispersion=gd3bj scf=xqc pop=npa geom=check

CID_121015165_JID_6172_Energie_neutraal

0 1

--Link1--
%chk=JID_6172.chk
%mem=8GB
%nprocshared=4
# B3LYP/6-311++G(d,p) empiricaldispersion=gd3bj scf=xqc pop=npa geom=check

CID_121015165_JID_6172_Energie_kation

1 2

--Link1--
%chk=JID_6172.chk
%mem=8GB
%nprocshared=4
# B3LYP/6-311++G(d,p) empiricaldispersion=gd3bj scf=xqc pop=npa geom=check

CID_121015165_JID_6172_Energie_anion

-1 2
