%chk=JID_7484.chk
%mem=8GB
%nprocshared=4
# opt=(cartesian,calcfc) freq B3LYP/6-31G(d) empiricaldispersion=gd3bj scf=xqc

CID_7148396_JID_7484_neutraal

0 1
6	1.213217	 3.158578	 -0.285221
6	0.202905	 2.041921	 -0.220212
6	0.571804	 0.687808	 -0.365941
6	-0.434475	 -0.294299	 -0.444293
6	-1.788790	 0.052991	 -0.306429
6	-2.148866	 1.378196	 -0.120862
6	-1.161710	 2.363980	 -0.093673
6	-2.773985	 -1.069927	 -0.434190
8	-2.610847	 -2.001415	 -1.203974
7	-3.916420	 -1.016658	 0.359234
7	-3.991128	 -0.403537	 1.637138
7	1.940790	 0.355470	 -0.525395
6	2.303304	 -0.857237	 -1.257097
6	2.461464	 -2.116428	 -0.383738
6	3.415522	 -1.831822	 0.785872
6	2.954565	 -0.588805	 1.551939
6	2.825524	 0.613449	 0.617084
1	1.641349	 3.399664	 0.696304
1	2.043328	 2.875834	 -0.939521
1	0.754201	 4.074992	 -0.669145
1	-0.191285	 -1.331863	 -0.605497
1	-3.202551	 1.675949	 -0.060717
1	-1.442580	 3.406662	 -0.007744
1	-4.455430	 -1.863209	 0.304956
1	-3.061452	 -0.388254	 2.050878
1	-4.271783	 0.567733	 1.511413
1	3.266188	 -0.652308	 -1.748455
1	1.566994	 -1.015219	 -2.052474
1	2.833708	 -2.944278	 -1.003335
1	1.488294	 -2.426297	 0.016409
1	3.476092	 -2.698769	 1.446665
1	4.429791	 -1.659605	 0.391024
1	1.975535	 -0.778648	 2.013749
1	3.652763	 -0.351175	 2.367301
1	2.481459	 1.483986	 1.153072
1	3.826579	 0.858778	 0.210632

--Link1--
%chk=JID_7484.chk
%mem=8GB
%nprocshared=4
# B3LYP/6-311++G(d,p) empiricaldispersion=gd3bj scf=xqc pop=npa geom=check

CID_7148396_JID_7484_Energie_neutraal

0 1

--Link1--
%chk=JID_7484.chk
%mem=8GB
%nprocshared=4
# B3LYP/6-311++G(d,p) empiricaldispersion=gd3bj scf=xqc pop=npa geom=check

CID_7148396_JID_7484_Energie_kation

1 2

--Link1--
%chk=JID_7484.chk
%mem=8GB
%nprocshared=4
# B3LYP/6-311++G(d,p) empiricaldispersion=gd3bj scf=xqc pop=npa geom=check

CID_7148396_JID_7484_Energie_anion

-1 2
