%chk=JID_8321.chk
%mem=8GB
%nprocshared=4
# opt freq B3LYP/6-31G(d) empiricaldispersion=gd3bj scf=xqc

CID_150578971_JID_8321_neutraal

0 1
C          0.97292       -0.03363        0.09020
C          0.48660       -1.45439       -0.19284
C          0.99600       -2.55376        0.79813
C          0.41941       -2.25161        2.20305
C          0.55536       -3.99205        0.41770
C         -0.36938       -4.24342       -0.61343
C         -0.78405       -5.54396       -0.92192
C         -0.28592       -6.62776       -0.20778
C          0.62351       -6.41260        0.82056
C          1.03233       -5.11296        1.13406
C          2.52081       -2.59488        0.78869
N          3.20238       -2.71325       -0.35828
O          4.53652       -2.69708       -0.01821
C          4.69680       -2.53974        1.33541
C          3.42412       -2.47665        1.87698
N          5.94548       -2.49341        1.86832
N          5.97534       -1.94850        2.98410
N          6.00512       -1.45271        4.01171
H          0.61957        0.33061        1.05855
H          0.58341        0.64698       -0.67454
H          2.06393        0.03775        0.06740
H         -0.61124       -1.43219       -0.18666
H          0.78563       -1.70372       -1.21989
H         -0.67681       -2.22748        2.17932
H          0.70587       -3.00594        2.94559
H          0.76763       -1.28869        2.59141
H         -0.79334       -3.43765       -1.20603
H         -1.49724       -5.70673       -1.72617
H         -0.60438       -7.63684       -0.45398
H          1.01998       -7.25573        1.38017
H          1.74312       -4.99108        1.94829
H          3.18019       -2.36133        2.92235

--Link1--
%chk=JID_8321.chk
%mem=8GB
%nprocshared=4
# B3LYP/6-311++G(d,p) empiricaldispersion=gd3bj scf=xqc pop=npa geom=check

CID_150578971_JID_8321_Energie_neutraal

0 1

--Link1--
%chk=JID_8321.chk
%mem=8GB
%nprocshared=4
# B3LYP/6-311++G(d,p) empiricaldispersion=gd3bj scf=xqc pop=npa geom=check

CID_150578971_JID_8321_Energie_kation

1 2

--Link1--
%chk=JID_8321.chk
%mem=8GB
%nprocshared=4
# B3LYP/6-311++G(d,p) empiricaldispersion=gd3bj scf=xqc pop=npa geom=check

CID_150578971_JID_8321_Energie_anion

-1 2
