%chk=JID_2541.chk
%mem=8GB
%nprocshared=4
# opt freq B3LYP/6-31G(d) empiricaldispersion=gd3bj scf=xqc

CID_144266726_JID_2541_neutraal

0 1
C          2.49200        0.00400       -0.01400
C          0.99822        0.00775        0.09785
C          0.28628       -1.19494        0.10171
C         -1.10464       -1.18819        0.21859
C         -1.80405        0.01433        0.33602
C         -1.09591        1.21507        0.35878
C          0.29920        1.21085        0.25002
O         -3.16139       -0.12264        0.41707
C         -3.92968        1.07470        0.41940
C          1.37395        0.13336       -3.98506
O          0.15026        0.41620       -3.32718
O         -2.52816       -0.08038       -3.29785
H          2.94303       -0.01395        0.98283
H          2.84147       -0.86878       -0.57565
H          2.84385        0.89340       -0.54740
H          0.80574       -2.14668        0.01382
H         -1.64917       -2.12977        0.21761
H         -1.59719        2.17155        0.46615
H          0.83516        2.15751        0.28210
H         -3.72623        1.67061        1.31521
H         -3.75699        1.65733       -0.49156
H         -4.98690        0.79329        0.44042
H          1.15963       -0.23011       -4.99262
H          1.91718       -0.63514       -3.42957
H          1.97388        1.04469       -4.04753
H          0.38472        0.72239       -2.43099
H         -1.59062        0.11058       -3.51714
H         -2.44904       -0.42413       -2.39378

--Link1--
%chk=JID_2541.chk
%mem=8GB
%nprocshared=4
# B3LYP/6-311++G(d,p) empiricaldispersion=gd3bj scf=xqc pop=npa geom=check

CID_144266726_JID_2541_Energie_neutraal

0 1

--Link1--
%chk=JID_2541.chk
%mem=8GB
%nprocshared=4
# B3LYP/6-311++G(d,p) empiricaldispersion=gd3bj scf=xqc pop=npa geom=check

CID_144266726_JID_2541_Energie_kation

1 2

--Link1--
%chk=JID_2541.chk
%mem=8GB
%nprocshared=4
# B3LYP/6-311++G(d,p) empiricaldispersion=gd3bj scf=xqc pop=npa geom=check

CID_144266726_JID_2541_Energie_anion

-1 2
