%chk=JID_9743.chk
%mem=8GB
%nprocshared=4
# opt freq B3LYP/6-31G(d) empiricaldispersion=gd3bj scf=xqc

CID_62878781_JID_9743_neutraal

0 1
C          2.49600       -0.00700       -0.12600
C          1.03070       -0.46371        0.05536
C          0.11976        0.16360       -1.01830
C         -1.28285       -0.44638       -1.05828
C         -1.23882       -1.95557       -1.25331
C         -0.37230       -2.61777       -0.19107
C          1.02957       -2.00914       -0.16185
N          0.59748       -0.20921        1.45852
C          0.25511        0.84464        2.24477
O          0.28324        0.59562        3.46249
C         -0.24518        2.22156        1.80278
C          0.78204        2.92219        0.92853
N          1.63422        3.50342        0.20326
C         -1.68453        2.23856        1.29896
C         -2.07999        2.93880        0.14563
C         -3.41779        2.95712       -0.25875
C         -4.38577        2.29257        0.48852
C         -4.02011        1.61419        1.64670
C         -2.68425        1.59335        2.05284
H          2.86408       -0.23412       -1.13269
H          2.61085        1.06533        0.03282
H          3.15359       -0.50790        0.59422
H          0.04103        1.24314       -0.89924
H          0.57759        0.01384       -2.00613
H         -1.85743        0.01114       -1.87174
H         -1.81667       -0.22823       -0.12928
H         -0.84130       -2.18591       -2.24938
H         -2.25447       -2.36483       -1.21215
H         -0.30050       -3.69210       -0.39573
H         -0.84680       -2.51371        0.79196
H          1.52543       -2.24639       -1.11317
H          1.61382       -2.50631        0.62343
H          0.85953       -0.96442        2.08515
H         -0.26460        2.83277        2.71943
H         -1.36216        3.48284       -0.46607
H         -3.70427        3.49745       -1.15806
H         -5.42570        2.31117        0.17301
H         -4.77554        1.10419        2.23949
H         -2.43283        1.06560        2.97291

--Link1--
%chk=JID_9743.chk
%mem=8GB
%nprocshared=4
# B3LYP/6-311++G(d,p) empiricaldispersion=gd3bj scf=xqc pop=npa geom=check

CID_62878781_JID_9743_Energie_neutraal

0 1

--Link1--
%chk=JID_9743.chk
%mem=8GB
%nprocshared=4
# B3LYP/6-311++G(d,p) empiricaldispersion=gd3bj scf=xqc pop=npa geom=check

CID_62878781_JID_9743_Energie_kation

1 2

--Link1--
%chk=JID_9743.chk
%mem=8GB
%nprocshared=4
# B3LYP/6-311++G(d,p) empiricaldispersion=gd3bj scf=xqc pop=npa geom=check

CID_62878781_JID_9743_Energie_anion

-1 2
