%chk=JID_7620.chk
%mem=8GB
%nprocshared=4
# opt freq B3LYP/6-31G(d) empiricaldispersion=gd3bj scf=xqc

CID_64990038_JID_7620_neutraal

0 1
C          3.06900        0.39100        0.00800
C          1.58773        0.13248        0.01743
C          0.70228        1.21077       -0.13170
C         -0.69401        1.03681       -0.11814
C         -1.22405       -0.26109        0.03305
C         -0.32570       -1.33724        0.19724
C          1.06689       -1.15749        0.19956
C          1.96325       -2.35330        0.36733
C         -2.71483       -0.57328        0.06690
C         -3.39726       -0.23287        1.39526
N         -3.03876       -0.91321        2.50501
C         -3.68203       -0.58979        3.64181
C         -4.67157        0.36146        3.71163
C         -4.98515        0.98223        2.52637
N         -4.37865        0.70406        1.35699
O         -3.37539        0.05015       -1.05040
C         -1.56140        2.25304       -0.29963
H          3.29562        1.42071       -0.28853
H          3.48610        0.22934        1.00693
H          3.57046       -0.26786       -0.70802
H          1.10904        2.21264       -0.26316
H         -0.72462       -2.34231        0.33288
H          1.39355       -3.24738        0.64231
H          2.48863       -2.56447       -0.56939
H          2.69334       -2.17901        1.16406
H         -2.86315       -1.64890       -0.08854
H         -3.36666       -1.13828        4.52479
H         -5.17205        0.60345        4.63842
H         -5.75701        1.74522        2.48034
H         -4.12208        0.53791       -0.64954
H         -2.31759        2.31620        0.48648
H         -0.97289        3.17537       -0.23942
H         -2.04284        2.23713       -1.28164

--Link1--
%chk=JID_7620.chk
%mem=8GB
%nprocshared=4
# B3LYP/6-311++G(d,p) empiricaldispersion=gd3bj scf=xqc pop=npa geom=check

CID_64990038_JID_7620_Energie_neutraal

0 1

--Link1--
%chk=JID_7620.chk
%mem=8GB
%nprocshared=4
# B3LYP/6-311++G(d,p) empiricaldispersion=gd3bj scf=xqc pop=npa geom=check

CID_64990038_JID_7620_Energie_kation

1 2

--Link1--
%chk=JID_7620.chk
%mem=8GB
%nprocshared=4
# B3LYP/6-311++G(d,p) empiricaldispersion=gd3bj scf=xqc pop=npa geom=check

CID_64990038_JID_7620_Energie_anion

-1 2
