%chk=JID_10298.chk
%mem=8GB
%nprocshared=4
# opt freq B3LYP/6-31G(d) empiricaldispersion=gd3bj scf=xqc

CID_19502463_JID_10298_neutraal

0 1
C          2.54100        1.06400        0.00800
C          1.18751        0.42279       -0.08896
C          0.14216        1.05048       -0.77841
C         -1.13375        0.45764       -0.88949
C         -1.37283       -0.75414       -0.22293
C         -0.31883       -1.39124        0.44641
C          0.94356       -0.80257        0.52915
N         -2.58545       -1.45946       -0.26176
C         -3.85006       -1.06935        0.08098
O         -4.75920       -1.89144       -0.09974
C         -4.17708        0.29639        0.63272
N         -3.36824        0.70843        1.76477
C         -2.86311        1.96149        1.97592
C         -2.26384        1.93953        3.22011
C         -2.48274        0.62373        3.67898
N         -3.18030       -0.11750        2.81347
C         -1.58918        3.01282        3.90292
O         -1.06537        2.93373        5.00374
O         -1.57764        4.18556        3.22887
C         -2.11001        1.12471       -1.81643
H          2.72804        1.71734       -0.85064
H          2.60745        1.65856        0.92430
H          3.33121        0.30592        0.01739
H          0.33431        1.99869       -1.27975
H         -0.48108       -2.34293        0.94834
H          1.73254       -1.31078        1.07885
H         -2.52130       -2.47189       -0.24753
H         -4.13242        1.05599       -0.14687
H         -5.20912        0.27725        1.00493
H         -2.96744        2.75340        1.24713
H         -2.17522        0.18478        4.62029
H         -1.10257        4.78506        3.83939
H         -2.50163        2.03910       -1.36122
H         -1.61233        1.39417       -2.75513
H         -2.94136        0.46969       -2.08942

--Link1--
%chk=JID_10298.chk
%mem=8GB
%nprocshared=4
# B3LYP/6-311++G(d,p) empiricaldispersion=gd3bj scf=xqc pop=npa geom=check

CID_19502463_JID_10298_Energie_neutraal

0 1

--Link1--
%chk=JID_10298.chk
%mem=8GB
%nprocshared=4
# B3LYP/6-311++G(d,p) empiricaldispersion=gd3bj scf=xqc pop=npa geom=check

CID_19502463_JID_10298_Energie_kation

1 2

--Link1--
%chk=JID_10298.chk
%mem=8GB
%nprocshared=4
# B3LYP/6-311++G(d,p) empiricaldispersion=gd3bj scf=xqc pop=npa geom=check

CID_19502463_JID_10298_Energie_anion

-1 2
