%chk=JID_6621.chk
%mem=8GB
%nprocshared=4
# opt freq B3LYP/6-31G(d) empiricaldispersion=gd3bj scf=xqc

CID_110268268_JID_6621_neutraal

0 1
C         -2.47500       -0.07800       -0.00600
C         -1.04732       -0.23660        0.42168
C         -0.43649       -1.47798        0.36384
C          0.88322       -1.57539        0.77420
N          1.52773       -0.49072        1.24074
C          0.85595        0.66960        1.25804
N         -0.40839        0.85917        0.86467
N          1.55246       -2.79323        0.77479
C          1.29531       -3.77348       -0.27177
C          2.34027       -4.85646       -0.02119
C          3.49171       -4.14809        0.69244
C          2.99325       -2.74907        1.04780
C          4.04821       -4.91417        1.87984
O          5.20870       -5.33537        1.84936
N          3.30940       -5.19548        2.98604
C          1.99717       -4.72673        3.36949
H         -3.12807       -0.69242        0.62156
H         -2.79633        0.96459        0.08563
H         -2.59285       -0.37943       -1.05155
H         -0.99239       -2.34034        0.02327
H          1.39020        1.53743        1.62815
H          1.44179       -3.33014       -1.26453
H          0.28845       -4.19935       -0.21498
H          1.91954       -5.67140        0.57704
H          2.66691       -5.30516       -0.96597
H          4.32734       -4.03837       -0.01298
H          3.20850       -2.46101        2.08190
H          3.48442       -2.02322        0.38525
H          3.85186       -5.67793        3.69348
H          1.66544       -5.31581        4.22846
H          2.06097       -3.67630        3.66059
H          1.28357       -4.85187        2.55645

--Link1--
%chk=JID_6621.chk
%mem=8GB
%nprocshared=4
# B3LYP/6-311++G(d,p) empiricaldispersion=gd3bj scf=xqc pop=npa geom=check

CID_110268268_JID_6621_Energie_neutraal

0 1

--Link1--
%chk=JID_6621.chk
%mem=8GB
%nprocshared=4
# B3LYP/6-311++G(d,p) empiricaldispersion=gd3bj scf=xqc pop=npa geom=check

CID_110268268_JID_6621_Energie_kation

1 2

--Link1--
%chk=JID_6621.chk
%mem=8GB
%nprocshared=4
# B3LYP/6-311++G(d,p) empiricaldispersion=gd3bj scf=xqc pop=npa geom=check

CID_110268268_JID_6621_Energie_anion

-1 2
