%chk=JID_6526.chk
%mem=8GB
%nprocshared=4
# opt freq B3LYP/6-31G(d) empiricaldispersion=gd3bj scf=xqc

CID_79412253_JID_6526_neutraal

0 1
C          0.99464       -0.06240       -0.07796
C          0.20582       -1.00701        0.81524
C          0.40754       -0.74762        2.31196
C         -0.04417        0.63043        2.80513
C         -1.52370        0.85802        2.63852
N         -1.90444        1.68006        1.64015
C         -3.21682        1.91224        1.43795
C         -4.15829        1.24577        2.24013
C         -5.59433        1.19469        2.25044
C         -6.09143        0.38579        3.24881
S         -4.83969       -0.32800        4.16947
C         -3.63544        0.43144        3.23033
N         -2.33641        0.21102        3.48380
N         -3.52699        2.78219        0.38618
C         -4.17180        4.03035        0.79387
C         -3.20233        4.97228        1.49390
H          0.63515        0.96698        0.00841
H          0.89008       -0.36204       -1.12573
H          2.05953       -0.08024        0.17439
H         -0.85762       -0.95196        0.55701
H          0.52405       -2.03424        0.59952
H         -0.12625       -1.52695        2.87074
H          1.47126       -0.86991        2.55163
H          0.19613        0.72183        3.87169
H          0.51515        1.42477        2.29833
H         -6.22447        1.72501        1.54721
H         -7.12667        0.17334        3.47859
H         -2.62820        2.97052       -0.05907
H         -4.53879        4.52276       -0.11387
H         -5.04948        3.85416        1.42406
H         -2.32691        5.17390        0.86766
H         -3.69325        5.92622        1.71084
H         -2.84911        4.55308        2.44151

--Link1--
%chk=JID_6526.chk
%mem=8GB
%nprocshared=4
# B3LYP/6-311++G(d,p) empiricaldispersion=gd3bj scf=xqc pop=npa geom=check

CID_79412253_JID_6526_Energie_neutraal

0 1

--Link1--
%chk=JID_6526.chk
%mem=8GB
%nprocshared=4
# B3LYP/6-311++G(d,p) empiricaldispersion=gd3bj scf=xqc pop=npa geom=check

CID_79412253_JID_6526_Energie_kation

1 2

--Link1--
%chk=JID_6526.chk
%mem=8GB
%nprocshared=4
# B3LYP/6-311++G(d,p) empiricaldispersion=gd3bj scf=xqc pop=npa geom=check

CID_79412253_JID_6526_Energie_anion

-1 2
