%chk=JID_1053.chk
%mem=8GB
%nprocshared=4
# opt freq B3LYP/6-31G(d) empiricaldispersion=gd3bj scf=xqc

CID_69777095_JID_1053_neutraal

0 1
C         -0.78000        1.93900       -0.04000
N          0.00772        0.73031       -0.02240
C         -0.45668       -0.56470       -0.05917
C          0.67293       -1.35461       -0.05558
C          1.75589       -0.45472        0.00076
N          1.35359        0.82114        0.02828
O          0.60184       -2.70288       -0.09762
C          1.73565       -3.44680       -0.08408
O          2.89442       -3.06388       -0.02462
N          1.42764       -4.76804       -0.15013
N         -1.76909       -0.89335       -0.09764
H         -1.41329        1.92764       -0.93053
H         -1.38867        1.96613        0.86712
H         -0.11816        2.80859       -0.06930
H          2.81825       -0.65876        0.02419
H          0.46949       -5.06856       -0.23407
H          2.18211       -5.43767       -0.17445
H         -2.04068       -1.86530        0.03359
H         -2.50533       -0.23432        0.13678

--Link1--
%chk=JID_1053.chk
%mem=8GB
%nprocshared=4
# B3LYP/6-311++G(d,p) empiricaldispersion=gd3bj scf=xqc pop=npa geom=check

CID_69777095_JID_1053_Energie_neutraal

0 1

--Link1--
%chk=JID_1053.chk
%mem=8GB
%nprocshared=4
# B3LYP/6-311++G(d,p) empiricaldispersion=gd3bj scf=xqc pop=npa geom=check

CID_69777095_JID_1053_Energie_kation

1 2

--Link1--
%chk=JID_1053.chk
%mem=8GB
%nprocshared=4
# B3LYP/6-311++G(d,p) empiricaldispersion=gd3bj scf=xqc pop=npa geom=check

CID_69777095_JID_1053_Energie_anion

-1 2
