%chk=JID_3509.chk
%mem=8GB
%nprocshared=4
# opt freq B3LYP/6-31G(d) empiricaldispersion=gd3bj scf=xqc

CID_112712322_JID_3509_neutraal

0 1
C          0.96199       -0.07422        0.05520
C          0.51185       -0.52900       -1.28494
N          0.62387       -1.81837       -1.62395
N          0.14277       -1.87796       -2.87777
C         -0.29552       -0.67097       -3.34015
C         -0.07586        0.24095       -2.32744
C         -0.38378        1.69993       -2.33721
C         -1.39193        2.06663       -1.25556
N         -1.10392        2.88820       -0.29653
N         -2.63979        1.51696       -1.27330
C          0.11551       -3.14636       -3.59879
C          1.52113       -3.71559       -3.78688
C         -0.80886       -4.15488       -2.91806
H          0.10701        0.00850        0.73346
H          1.44953        0.90358       -0.00965
H          1.67980       -0.77539        0.49357
H         -0.71536       -0.55898       -4.33024
H          0.53889        2.27379       -2.19806
H         -0.81089        1.99476       -3.30303
H         -0.14557        3.23915       -0.39192
H         -2.69619        0.56792       -1.62807
H         -3.11223        1.63561       -0.38264
H         -0.29584       -2.92552       -4.59206
H          1.98204       -3.97887       -2.82842
H          1.49294       -4.61851       -4.40587
H          2.17432       -2.98768       -4.28066
H         -1.81623       -3.74140       -2.79701
H         -0.88897       -5.07004       -3.51408
H         -0.44205       -4.43143       -1.92339

--Link1--
%chk=JID_3509.chk
%mem=8GB
%nprocshared=4
# B3LYP/6-311++G(d,p) empiricaldispersion=gd3bj scf=xqc pop=npa geom=check

CID_112712322_JID_3509_Energie_neutraal

0 1

--Link1--
%chk=JID_3509.chk
%mem=8GB
%nprocshared=4
# B3LYP/6-311++G(d,p) empiricaldispersion=gd3bj scf=xqc pop=npa geom=check

CID_112712322_JID_3509_Energie_kation

1 2

--Link1--
%chk=JID_3509.chk
%mem=8GB
%nprocshared=4
# B3LYP/6-311++G(d,p) empiricaldispersion=gd3bj scf=xqc pop=npa geom=check

CID_112712322_JID_3509_Energie_anion

-1 2
