%chk=JID_10371.chk
%mem=8GB
%nprocshared=4
# opt freq B3LYP/6-31G(d) empiricaldispersion=gd3bj scf=xqc

CID_61273160_JID_10371_neutraal

0 1
C          0.90779        0.03619       -0.01372
C         -0.56868       -0.03116        0.34323
C         -0.94478        0.74016        1.61489
N         -0.92381        2.21917        1.48644
C         -1.67619        2.82432        0.47050
C         -0.97736        3.68721       -0.28291
C          0.37905        3.72974        0.36497
O          1.23049        4.54556        0.03901
N          0.38309        2.82593        1.44967
C          1.02696        3.23630        2.73028
C          2.53972        3.46832        2.51890
C          0.38931        4.53662        3.26464
C          0.90563        2.16833        3.83561
N         -1.29953        4.50814       -1.34119
C         -3.09975        2.50342        0.28132
C         -3.60815        2.16670       -0.98137
C         -4.95919        1.85223       -1.14365
C         -5.81625        1.87049       -0.04507
C         -5.32427        2.20147        1.21602
C         -3.97303        2.51513        1.37840
H          1.19261        1.02760       -0.37347
H          1.13061       -0.67570       -0.81533
H          1.53551       -0.21744        0.84617
H         -1.16380        0.29423       -0.51571
H         -0.82189       -1.08602        0.50943
H         -1.95761        0.44008        1.91072
H         -0.30391        0.40554        2.43240
H          2.74670        4.33571        1.88609
H          3.05074        3.65010        3.47180
H          3.00625        2.59506        2.04865
H         -0.68598        4.40799        3.43295
H          0.84296        4.84003        4.21515
H          0.51334        5.36958        2.56437
H         -0.13930        1.96714        4.09452
H          1.37971        1.22852        3.53285
H          1.40076        2.49517        4.75816
H         -2.27351        4.79733       -1.31855
H         -0.65153        5.29648       -1.38649
H         -2.95019        2.13876       -1.84825
H         -5.34012        1.59111       -2.12760
H         -6.86767        1.62534       -0.17179
H         -5.99147        2.21646        2.07383
H         -3.60176        2.77429        2.36791

--Link1--
%chk=JID_10371.chk
%mem=8GB
%nprocshared=4
# B3LYP/6-311++G(d,p) empiricaldispersion=gd3bj scf=xqc pop=npa geom=check

CID_61273160_JID_10371_Energie_neutraal

0 1

--Link1--
%chk=JID_10371.chk
%mem=8GB
%nprocshared=4
# B3LYP/6-311++G(d,p) empiricaldispersion=gd3bj scf=xqc pop=npa geom=check

CID_61273160_JID_10371_Energie_kation

1 2

--Link1--
%chk=JID_10371.chk
%mem=8GB
%nprocshared=4
# B3LYP/6-311++G(d,p) empiricaldispersion=gd3bj scf=xqc pop=npa geom=check

CID_61273160_JID_10371_Energie_anion

-1 2
