%chk=JID_3428.chk
%mem=8GB
%nprocshared=4
# opt freq B3LYP/6-31G(d) empiricaldispersion=gd3bj scf=xqc

CID_57699618_JID_3428_neutraal

0 1
C          0.94373       -0.07885       -0.02484
S         -0.33428       -0.25314       -1.24364
O         -0.42791       -1.64425       -1.63021
O         -1.49007        0.50060       -0.80504
O          0.41315        0.55832       -2.44466
C         -0.37593        1.39524       -3.27307
C          0.32290        1.63574       -4.61073
C          0.30653        0.46402       -5.61421
C         -1.10726       -0.04166       -5.96242
C         -1.37719       -1.41249       -5.35657
C         -0.29633       -2.42038       -5.74685
O          0.96266       -1.81527       -6.05269
C          1.23652       -0.69062       -5.22032
H          0.62088       -0.59505        0.88159
H          1.09019        0.98297        0.18192
H          1.86129       -0.53099       -0.40577
H         -1.37465        0.97383       -3.42195
H         -0.49182        2.35391       -2.75517
H         -0.16479        2.49276       -5.09261
H          1.36588        1.92393       -4.42811
H          0.70741        0.87589       -6.55250
H         -1.87986        0.67403       -5.66111
H         -1.18952       -0.12949       -7.05403
H         -1.40079       -1.32161       -4.26467
H         -2.36432       -1.78647       -5.64956
H         -0.15184       -3.15514       -4.94701
H         -0.60716       -2.97268       -6.63994
H          2.27950       -0.39785       -5.38228
H          1.14432       -0.99382       -4.17425

--Link1--
%chk=JID_3428.chk
%mem=8GB
%nprocshared=4
# B3LYP/6-311++G(d,p) empiricaldispersion=gd3bj scf=xqc pop=npa geom=check

CID_57699618_JID_3428_Energie_neutraal

0 1

--Link1--
%chk=JID_3428.chk
%mem=8GB
%nprocshared=4
# B3LYP/6-311++G(d,p) empiricaldispersion=gd3bj scf=xqc pop=npa geom=check

CID_57699618_JID_3428_Energie_kation

1 2

--Link1--
%chk=JID_3428.chk
%mem=8GB
%nprocshared=4
# B3LYP/6-311++G(d,p) empiricaldispersion=gd3bj scf=xqc pop=npa geom=check

CID_57699618_JID_3428_Energie_anion

-1 2
