%chk=JID_4534.chk
%mem=8GB
%nprocshared=4
# opt freq B3LYP/6-31G(d) empiricaldispersion=gd3bj scf=xqc

CID_63381021_JID_4534_neutraal

0 1
C          1.03013        0.04652       -0.08323
C          0.80155       -0.15791        1.41201
C          1.72530        0.67815        2.31598
N          1.58513        2.12853        2.14768
C          1.47829        2.82530        3.42636
C          2.52532        2.76703        1.21741
C          3.91288        3.20305        1.72083
C          4.90383        2.08646        2.05980
C          5.24612        1.13296        0.91112
N          5.85849        1.81955       -0.21936
C         -0.64080        0.02471        1.85234
O         -1.06830       -0.39341        2.92343
O         -1.38766        0.69691        0.93593
C         -2.74036        0.92156        1.33218
H          0.76106        1.05520       -0.41207
H          0.41494       -0.65230       -0.66156
H          2.07634       -0.13806       -0.34675
H          1.02287       -1.21732        1.60531
H          1.49971        0.39949        3.35520
H          2.75782        0.35559        2.16277
H          2.36555        2.68288        4.05262
H          1.32323        3.89940        3.27523
H          0.60699        2.46476        3.98514
H          2.64442        2.16412        0.31257
H          2.02539        3.67969        0.86446
H          4.35862        3.84735        0.95209
H          3.80485        3.85222        2.59795
H          5.83248        2.55445        2.41274
H          4.52703        1.50594        2.90917
H          5.95109        0.38059        1.28183
H          4.36004        0.59273        0.56696
H          6.11050        1.13578       -0.93266
H          5.18312        2.44351       -0.65790
H         -3.27614       -0.02960        1.40826
H         -2.78211        1.46838        2.27952
H         -3.22207        1.53028        0.56194

--Link1--
%chk=JID_4534.chk
%mem=8GB
%nprocshared=4
# B3LYP/6-311++G(d,p) empiricaldispersion=gd3bj scf=xqc pop=npa geom=check

CID_63381021_JID_4534_Energie_neutraal

0 1

--Link1--
%chk=JID_4534.chk
%mem=8GB
%nprocshared=4
# B3LYP/6-311++G(d,p) empiricaldispersion=gd3bj scf=xqc pop=npa geom=check

CID_63381021_JID_4534_Energie_kation

1 2

--Link1--
%chk=JID_4534.chk
%mem=8GB
%nprocshared=4
# B3LYP/6-311++G(d,p) empiricaldispersion=gd3bj scf=xqc pop=npa geom=check

CID_63381021_JID_4534_Energie_anion

-1 2
