%chk=JID_5832.chk
%mem=8GB
%nprocshared=4
# opt freq B3LYP/6-31G(d) empiricaldispersion=gd3bj scf=xqc

CID_58449012_JID_5832_neutraal

0 1
C          0.97660       -0.08102       -0.05375
C          0.40074       -1.45879       -0.40250
C          0.95472       -2.49709        0.57898
C         -1.11674       -1.47081       -0.43291
C         -1.81429       -2.62373       -0.79672
N         -3.16738       -2.70274       -0.83211
C         -3.81736       -1.57029       -0.49257
C         -3.14078       -0.40792       -0.16040
N         -1.78759       -0.33518       -0.11405
O         -5.19391       -1.52787       -0.48918
C         -5.81596       -2.81593       -0.46519
C         -5.79747       -3.38604        0.89130
C         -5.75512       -3.83954        2.00341
C         -5.67213       -4.37560        3.36213
O         -5.70326       -3.31219        4.30381
H          0.67629        0.23938        0.95046
H          0.63967        0.68029       -0.76625
H          2.07151       -0.09941       -0.08614
H          0.74900       -1.71415       -1.41196
H          0.58881       -2.31914        1.59636
H          0.66673       -3.51477        0.29498
H          2.04964       -2.46521        0.60092
H         -1.29738       -3.53673       -1.07369
H         -3.67376        0.50205        0.08895
H         -5.39742       -3.49718       -1.21526
H         -6.85943       -2.65610       -0.76073
H         -6.51146       -5.04374        3.57422
H         -4.74401       -4.93653        3.50774
H         -5.05237       -2.65632        4.00036

--Link1--
%chk=JID_5832.chk
%mem=8GB
%nprocshared=4
# B3LYP/6-311++G(d,p) empiricaldispersion=gd3bj scf=xqc pop=npa geom=check

CID_58449012_JID_5832_Energie_neutraal

0 1

--Link1--
%chk=JID_5832.chk
%mem=8GB
%nprocshared=4
# B3LYP/6-311++G(d,p) empiricaldispersion=gd3bj scf=xqc pop=npa geom=check

CID_58449012_JID_5832_Energie_kation

1 2

--Link1--
%chk=JID_5832.chk
%mem=8GB
%nprocshared=4
# B3LYP/6-311++G(d,p) empiricaldispersion=gd3bj scf=xqc pop=npa geom=check

CID_58449012_JID_5832_Energie_anion

-1 2
