%chk=JID_3526.chk
%mem=8GB
%nprocshared=4
# opt freq B3LYP/6-31G(d) empiricaldispersion=gd3bj scf=xqc

CID_112712265_JID_3526_neutraal

0 1
C         -1.30100        0.43100       -0.00300
C         -0.27345        1.19932       -0.42556
C          1.10842        0.66767       -0.45944
C          1.28738       -0.67707       -0.50944
C          0.06751       -1.53640       -0.53389
C         -0.96654       -0.95612        0.43378
N         -1.92743       -2.05060        0.47830
N         -1.22246       -3.24336        0.42406
C         -0.04359       -2.94653       -0.04022
C          2.23260        1.69072       -0.50540
C          2.41998        2.45810        0.82902
N          3.05385        1.60682        1.85426
O          3.47581        1.04945       -0.82138
H         -2.31324        0.80848        0.07221
H         -0.44176        2.22675       -0.73702
H          2.27128       -1.12492       -0.59528
H         -0.28906       -1.57203       -1.57579
H         -0.55766       -0.87503        1.45453
H         -2.57944       -1.99894       -0.30731
H          0.75780       -3.68020       -0.20038
H          2.03401        2.40613       -1.31187
H          3.09615        3.30241        0.65303
H          1.47258        2.86030        1.20249
H          3.15932        2.15122        2.71166
H          2.40940        0.84869        2.09042
H          3.89360        0.89898        0.05281

--Link1--
%chk=JID_3526.chk
%mem=8GB
%nprocshared=4
# B3LYP/6-311++G(d,p) empiricaldispersion=gd3bj scf=xqc pop=npa geom=check

CID_112712265_JID_3526_Energie_neutraal

0 1

--Link1--
%chk=JID_3526.chk
%mem=8GB
%nprocshared=4
# B3LYP/6-311++G(d,p) empiricaldispersion=gd3bj scf=xqc pop=npa geom=check

CID_112712265_JID_3526_Energie_kation

1 2

--Link1--
%chk=JID_3526.chk
%mem=8GB
%nprocshared=4
# B3LYP/6-311++G(d,p) empiricaldispersion=gd3bj scf=xqc pop=npa geom=check

CID_112712265_JID_3526_Energie_anion

-1 2
