%chk=JID_9719.chk
%mem=8GB
%nprocshared=4
# opt freq B3LYP/6-31G(d) empiricaldispersion=gd3bj scf=xqc

CID_65616144_JID_9719_neutraal

0 1
C          0.94351        0.07671        0.03041
C          0.83883       -1.44095       -0.07633
C          1.40391       -2.19316        1.13021
N          0.71322       -1.95315        2.37883
C         -0.11874       -2.77752        3.09578
N         -0.41684       -2.18115        4.23832
C          0.24796       -0.99658        4.16688
N          0.97569       -0.82111        3.06777
C         -0.50676       -4.16961        2.71066
N         -1.46739       -4.30101        1.58648
C         -1.17644       -5.55116        0.83252
C         -0.93214       -6.84704        1.63075
C         -1.43282       -8.07005        0.87461
C         -2.93589       -4.11105        1.92759
C         -3.46909       -5.13783        2.96449
C         -3.24347       -2.70172        2.54367
C         -2.90333       -1.47652        1.70637
C         -3.86202       -4.28080        0.64755
N         -3.37507       -3.62504       -0.57370
H          0.26618        0.47131        0.79315
H          0.66515        0.53721       -0.92313
H          1.96499        0.38712        0.27099
H         -0.20568       -1.72236       -0.24504
H          1.39613       -1.75981       -0.96567
H          1.38205       -3.26809        0.92815
H          2.45584       -1.92506        1.28826
H          0.21171       -0.24599        4.94674
H          0.43933       -4.66343        2.44804
H         -0.85570       -4.70228        3.60109
H         -1.91548       -5.73404        0.04972
H         -0.25830       -5.35537        0.25970
H          0.14228       -6.96094        1.81945
H         -1.41268       -6.83022        2.61154
H         -0.95504       -8.15298       -0.10626
H         -1.21683       -8.98169        1.44026
H         -2.51695       -8.01580        0.72685
H         -2.92022       -5.10207        3.91000
H         -4.51958       -4.93285        3.20664
H         -3.44332       -6.16188        2.58299
H         -4.31681       -2.63879        2.77343
H         -2.76019       -2.61450        3.52077
H         -3.66959       -1.29092        0.94905
H         -2.87403       -0.58693        2.34426
H         -1.93856       -1.56349        1.20839
H         -3.98007       -5.34671        0.41698
H         -4.87536       -3.91864        0.86147
H         -3.73813       -2.67546       -0.61523
H         -2.36290       -3.51760       -0.46888

--Link1--
%chk=JID_9719.chk
%mem=8GB
%nprocshared=4
# B3LYP/6-311++G(d,p) empiricaldispersion=gd3bj scf=xqc pop=npa geom=check

CID_65616144_JID_9719_Energie_neutraal

0 1

--Link1--
%chk=JID_9719.chk
%mem=8GB
%nprocshared=4
# B3LYP/6-311++G(d,p) empiricaldispersion=gd3bj scf=xqc pop=npa geom=check

CID_65616144_JID_9719_Energie_kation

1 2

--Link1--
%chk=JID_9719.chk
%mem=8GB
%nprocshared=4
# B3LYP/6-311++G(d,p) empiricaldispersion=gd3bj scf=xqc pop=npa geom=check

CID_65616144_JID_9719_Energie_anion

-1 2
