%chk=JID_6157.chk
%mem=8GB
%nprocshared=4
# opt freq B3LYP/6-31G(d) empiricaldispersion=gd3bj scf=xqc

CID_79989307_JID_6157_neutraal

0 1
C          0.92525       -0.01151       -0.06542
C          0.39967        0.44096        1.28668
N          1.16445        1.60322        1.73072
C          0.66380        2.16992        3.00247
C          1.08477        1.29630        4.18898
C          0.26727        0.54043        5.02717
C          1.03541       -0.15400        6.01905
C          2.38559        0.06761        5.89708
S          2.74600        1.08889        4.58400
C         -1.22005        0.44001        4.92281
C          0.95343        3.75092        3.19540
C          0.28218        4.49274        2.00363
C          0.15564        4.17636        4.46736
N          2.40144        4.14285        3.34001
C          3.21321        4.00600        2.12796
C          2.62861        5.48173        3.89471
H          0.83542        0.78406       -0.81303
H          0.35358       -0.87426       -0.42245
H          1.97802       -0.30776       -0.00407
H         -0.66061        0.69651        1.17989
H          0.48250       -0.38680        1.99908
H          2.13115        1.31950        1.89391
H         -0.43286        2.10973        2.94466
H          0.61275       -0.79397        6.78473
H          3.18074       -0.33257        6.51080
H         -1.50478        0.00093        3.96105
H         -1.63229       -0.19318        5.71522
H         -1.68158        1.42828        5.00850
H         -0.78947        4.26363        1.95771
H          0.36971        5.58020        2.09801
H          0.70984        4.20516        1.03796
H          0.62473        3.80342        5.38463
H          0.06452        5.26537        4.55113
H         -0.86972        3.78908        4.44047
H          2.89624        4.68015        1.32582
H          4.26254        4.23879        2.34954
H          3.23810        2.98780        1.74469
H          2.19339        6.27180        3.27417
H          2.24126        5.57297        4.91366
H          3.70260        5.68602        3.98564

--Link1--
%chk=JID_6157.chk
%mem=8GB
%nprocshared=4
# B3LYP/6-311++G(d,p) empiricaldispersion=gd3bj scf=xqc pop=npa geom=check

CID_79989307_JID_6157_Energie_neutraal

0 1

--Link1--
%chk=JID_6157.chk
%mem=8GB
%nprocshared=4
# B3LYP/6-311++G(d,p) empiricaldispersion=gd3bj scf=xqc pop=npa geom=check

CID_79989307_JID_6157_Energie_kation

1 2

--Link1--
%chk=JID_6157.chk
%mem=8GB
%nprocshared=4
# B3LYP/6-311++G(d,p) empiricaldispersion=gd3bj scf=xqc pop=npa geom=check

CID_79989307_JID_6157_Energie_anion

-1 2
