%chk=JID_8320.chk
%mem=8GB
%nprocshared=4
# opt freq B3LYP/6-31G(d) empiricaldispersion=gd3bj scf=xqc

CID_76999054_JID_8320_neutraal

0 1
C          1.09348       -0.00677        0.03486
C          1.01327       -0.73950       -1.29018
N          0.68095       -1.99531       -1.38713
O          0.43005       -2.56436       -0.13460
C          1.34659        0.00996       -2.53920
C          0.77618       -0.40022       -3.75109
C          1.06395        0.27920       -4.93827
C          1.99226        1.32721       -4.92804
C          2.53811        1.75887       -3.71755
C          2.22769        1.09580       -2.52698
O          2.31994        1.99217       -6.07269
C          3.53682        1.61393       -6.74146
C          3.93603        0.15244       -6.74380
C          4.89762        0.04086       -5.57701
O          5.43391        1.34614       -5.31862
C          4.76965        2.29630       -6.16751
O          0.43835       -0.21071       -6.05479
C         -0.12455        0.79332       -6.89585
H          0.23813       -0.26959        0.66448
H          1.06663        1.07768       -0.09477
H          2.01787       -0.28882        0.54658
H          0.20316       -3.48403       -0.36622
H          0.08758       -1.24210       -3.77566
H          3.22732        2.59824       -3.69448
H          2.70680        1.42673       -1.60992
H          3.38526        1.95528       -7.77179
H          4.49249       -0.06125       -7.66534
H          3.11654       -0.56627       -6.68702
H          4.40009       -0.31051       -4.66850
H          5.72030       -0.64820       -5.79153
H          5.47592        2.55003       -6.96562
H          4.54851        3.20236       -5.59716
H         -0.48308        1.66336       -6.33415
H          0.59488        1.09194       -7.66348
H         -0.98556        0.35169       -7.40722

--Link1--
%chk=JID_8320.chk
%mem=8GB
%nprocshared=4
# B3LYP/6-311++G(d,p) empiricaldispersion=gd3bj scf=xqc pop=npa geom=check

CID_76999054_JID_8320_Energie_neutraal

0 1

--Link1--
%chk=JID_8320.chk
%mem=8GB
%nprocshared=4
# B3LYP/6-311++G(d,p) empiricaldispersion=gd3bj scf=xqc pop=npa geom=check

CID_76999054_JID_8320_Energie_kation

1 2

--Link1--
%chk=JID_8320.chk
%mem=8GB
%nprocshared=4
# B3LYP/6-311++G(d,p) empiricaldispersion=gd3bj scf=xqc pop=npa geom=check

CID_76999054_JID_8320_Energie_anion

-1 2
