%chk=JID_8941.chk
%mem=8GB
%nprocshared=4
# opt freq B3LYP/6-31G(d) empiricaldispersion=gd3bj scf=xqc

CID_132019945_JID_8941_neutraal

0 1
C          2.49200        0.00400       -0.01400
C          0.99241        0.05972       -0.01221
C          0.25144       -1.13215        0.02719
C         -1.15307       -1.12188        0.00395
C         -1.80513        0.11834       -0.05012
C         -1.07203        1.30834       -0.08198
C          0.31952        1.28576       -0.08023
O         -1.85310        2.48659       -0.16525
C         -1.40092        3.76501        0.12630
O         -0.28937        4.09430        0.50852
N         -2.40130        4.66347       -0.05824
C         -1.91697       -2.37638        0.02452
C         -2.78714       -2.70731       -1.02221
C         -3.49839       -3.90310       -0.97285
N         -3.38021       -4.77719        0.05282
C         -2.53745       -4.44720        1.05366
C         -1.79531       -3.27900        1.08394
C         -4.41472       -4.29879       -2.09095
H          2.84990       -0.59479        0.82989
H          2.84985       -0.44004       -0.94827
H          2.93132        1.00262        0.07911
H          0.78043       -2.08408        0.05765
H         -2.89163        0.16317       -0.06008
H          0.89629        2.20365       -0.13635
H         -3.32592        4.35360       -0.31313
H         -2.22509        5.63334        0.15700
H         -2.89820       -2.04152       -1.87326
H         -2.47167       -5.17186        1.86007
H         -1.14170       -3.07512        1.92574
H         -3.97636       -5.12937       -2.65255
H         -5.38218       -4.61414       -1.68773
H         -4.59272       -3.46866       -2.78184

--Link1--
%chk=JID_8941.chk
%mem=8GB
%nprocshared=4
# B3LYP/6-311++G(d,p) empiricaldispersion=gd3bj scf=xqc pop=npa geom=check

CID_132019945_JID_8941_Energie_neutraal

0 1

--Link1--
%chk=JID_8941.chk
%mem=8GB
%nprocshared=4
# B3LYP/6-311++G(d,p) empiricaldispersion=gd3bj scf=xqc pop=npa geom=check

CID_132019945_JID_8941_Energie_kation

1 2

--Link1--
%chk=JID_8941.chk
%mem=8GB
%nprocshared=4
# B3LYP/6-311++G(d,p) empiricaldispersion=gd3bj scf=xqc pop=npa geom=check

CID_132019945_JID_8941_Energie_anion

-1 2
