%chk=JID_8659.chk
%mem=8GB
%nprocshared=4
# opt freq B3LYP/6-31G(d) empiricaldispersion=gd3bj scf=xqc

CID_132390525_JID_8659_neutraal

0 1
C          2.22400        0.03500        0.00200
C          1.08452       -0.31798       -0.86640
C          0.41929       -1.49297       -1.14924
C         -0.56906       -1.09104       -2.07629
N         -0.51736        0.21553       -2.33888
O          0.52785        0.70170       -1.57408
C          0.67276       -2.85465       -0.62553
N         -0.37441       -3.14978        0.35879
S         -0.34944       -4.70675        0.99640
O          1.02538       -5.04212        1.29795
O         -1.38023       -4.75640        2.00747
C         -0.84982       -5.79584       -0.20396
C         -2.13858       -6.01344       -0.62685
O         -2.11825       -6.93973       -1.62217
N         -0.81245       -7.32229       -1.86616
C         -0.05528       -6.63058       -1.01053
N          1.28741       -6.73089       -0.96331
C         -3.46076       -5.48444       -0.24498
H          2.39897        1.11530        0.01410
H          2.03537       -0.28887        1.03020
H          3.13723       -0.45363       -0.35109
H         -1.32269       -1.69182       -2.56676
H          0.64428       -3.57377       -1.45013
H          1.65908       -2.89826       -0.15187
H         -0.42810       -2.46929        1.11822
H          1.70264       -7.53754       -1.42127
H          1.78053       -6.46094       -0.11058
H         -3.42618       -4.39636       -0.13356
H         -4.21515       -5.71858       -1.00274
H         -3.78640       -5.92031        0.70427

--Link1--
%chk=JID_8659.chk
%mem=8GB
%nprocshared=4
# B3LYP/6-311++G(d,p) empiricaldispersion=gd3bj scf=xqc pop=npa geom=check

CID_132390525_JID_8659_Energie_neutraal

0 1

--Link1--
%chk=JID_8659.chk
%mem=8GB
%nprocshared=4
# B3LYP/6-311++G(d,p) empiricaldispersion=gd3bj scf=xqc pop=npa geom=check

CID_132390525_JID_8659_Energie_kation

1 2

--Link1--
%chk=JID_8659.chk
%mem=8GB
%nprocshared=4
# B3LYP/6-311++G(d,p) empiricaldispersion=gd3bj scf=xqc pop=npa geom=check

CID_132390525_JID_8659_Energie_anion

-1 2
