%chk=JID_6408.chk
%mem=8GB
%nprocshared=4
# opt freq B3LYP/6-31G(d) empiricaldispersion=gd3bj scf=xqc

CID_149959533_JID_6408_neutraal

0 1
C          0.95329        0.03573        0.08088
C         -0.31198        0.86856       -0.00217
C         -0.13823        2.27154       -0.59329
C          0.17157        2.43633       -2.09377
C         -0.68997        1.58490       -3.03126
C          0.23268        0.49008       -3.50113
O         -0.11218       -0.50958       -4.10918
N          1.52879        0.84818       -3.17323
C          1.60902        2.11072       -2.48662
C          2.70190        0.08578       -3.56240
C          3.06369        0.20670       -5.04592
C          3.47969        1.61173       -5.50696
C          4.70885        2.16198       -4.78541
N          3.70089        1.63012       -6.97077
N          4.62572        0.93507       -7.43127
N          5.47606        0.30194       -7.84803
H          1.24141       -0.36458       -0.89129
H          0.79036       -0.82264        0.74142
H          1.78821        0.61552        0.48592
H         -1.08755        0.30918       -0.53442
H         -0.68591        0.99611        1.02243
H         -1.08186        2.80323       -0.40706
H          0.62063        2.81279       -0.01308
H         -0.00842        3.49766       -2.31294
H         -0.99534        2.16491       -3.90875
H         -1.57777        1.16992       -2.54972
H          1.99927        2.85838       -3.18353
H          2.28658        2.03607       -1.63134
H          3.53991        0.36339       -2.91505
H          2.47702       -0.96824       -3.35807
H          3.87760       -0.50091       -5.24965
H          2.21407       -0.12664       -5.65564
H          2.64689        2.30003       -5.32645
H          5.56048        1.47768       -4.86231
H          5.01368        3.12091       -5.21895
H          4.50629        2.32946       -3.72359

--Link1--
%chk=JID_6408.chk
%mem=8GB
%nprocshared=4
# B3LYP/6-311++G(d,p) empiricaldispersion=gd3bj scf=xqc pop=npa geom=check

CID_149959533_JID_6408_Energie_neutraal

0 1

--Link1--
%chk=JID_6408.chk
%mem=8GB
%nprocshared=4
# B3LYP/6-311++G(d,p) empiricaldispersion=gd3bj scf=xqc pop=npa geom=check

CID_149959533_JID_6408_Energie_kation

1 2

--Link1--
%chk=JID_6408.chk
%mem=8GB
%nprocshared=4
# B3LYP/6-311++G(d,p) empiricaldispersion=gd3bj scf=xqc pop=npa geom=check

CID_149959533_JID_6408_Energie_anion

-1 2
