%chk=JID_1097.chk
%mem=8GB
%nprocshared=4
# opt freq B3LYP/6-31G(d) empiricaldispersion=gd3bj scf=xqc

CID_103605457_JID_1097_neutraal

0 1
C          0.92349        0.06435        0.00215
S         -0.11737        0.83019        1.27070
C          0.95297        0.56043        2.73372
C          0.43898       -0.57943        3.62729
N          0.42902       -1.86910        2.92836
C         -0.20557       -2.93156        3.71524
C         -1.69180       -2.88775        3.71557
C         -2.65746       -2.18392        3.03233
C         -3.86971       -2.68209        3.53831
N         -3.67738       -3.62569        4.46167
O         -2.30284       -3.75557        4.57215
H          0.41501        0.13161       -0.96342
H          1.10357       -0.98995        0.22306
H          1.87776        0.59216       -0.07390
H          1.98617        0.37658        2.41995
H          0.95224        1.49037        3.31226
H          1.09662       -0.65177        4.50179
H         -0.55976       -0.31630        3.99562
H         -0.06612       -1.76770        2.04254
H          0.10072       -3.88970        3.27904
H          0.17666       -2.92621        4.74311
H         -2.51061       -1.42127        2.28262
H         -4.88097       -2.40353        3.27751

--Link1--
%chk=JID_1097.chk
%mem=8GB
%nprocshared=4
# B3LYP/6-311++G(d,p) empiricaldispersion=gd3bj scf=xqc pop=npa geom=check

CID_103605457_JID_1097_Energie_neutraal

0 1

--Link1--
%chk=JID_1097.chk
%mem=8GB
%nprocshared=4
# B3LYP/6-311++G(d,p) empiricaldispersion=gd3bj scf=xqc pop=npa geom=check

CID_103605457_JID_1097_Energie_kation

1 2

--Link1--
%chk=JID_1097.chk
%mem=8GB
%nprocshared=4
# B3LYP/6-311++G(d,p) empiricaldispersion=gd3bj scf=xqc pop=npa geom=check

CID_103605457_JID_1097_Energie_anion

-1 2
