%chk=JID_1493.chk
%mem=8GB
%nprocshared=4
# opt freq B3LYP/6-31G(d) empiricaldispersion=gd3bj scf=xqc

CID_82416286_JID_1493_neutraal

0 1
C          0.93113       -0.02725        0.06718
C          0.54223        0.85849       -1.11424
C          0.13805        0.07566       -2.38019
C          1.30245       -0.37203       -3.28478
C          2.26829        0.80239       -3.41621
C          3.60881        0.61026       -4.11043
C          4.43999        1.81275       -3.63268
C          3.69055        2.41046       -2.43356
C          2.67675        1.34004       -2.05422
O          1.54934        1.85301       -1.36754
N          1.90345       -1.61249       -2.79422
H          0.12691       -0.72741        0.31373
H          1.13062        0.59293        0.94818
H          1.84205       -0.60128       -0.11332
H         -0.34343        1.42025       -0.79165
H         -0.51209       -0.76981       -2.12306
H         -0.48163        0.75249       -2.98613
H          0.89111       -0.60123       -4.27558
H          1.72130        1.59363       -3.95420
H          4.10225       -0.31648       -3.79793
H          3.51199        0.58830       -5.20015
H          5.44748        1.49001       -3.34882
H          4.54439        2.56062       -4.42610
H          4.36291        2.65017       -1.60367
H          3.18794        3.34326       -2.71692
H          3.18305        0.58615       -1.43959
H          2.55122       -1.97910       -3.49133
H          2.45864       -1.44975       -1.95784

--Link1--
%chk=JID_1493.chk
%mem=8GB
%nprocshared=4
# B3LYP/6-311++G(d,p) empiricaldispersion=gd3bj scf=xqc pop=npa geom=check

CID_82416286_JID_1493_Energie_neutraal

0 1

--Link1--
%chk=JID_1493.chk
%mem=8GB
%nprocshared=4
# B3LYP/6-311++G(d,p) empiricaldispersion=gd3bj scf=xqc pop=npa geom=check

CID_82416286_JID_1493_Energie_kation

1 2

--Link1--
%chk=JID_1493.chk
%mem=8GB
%nprocshared=4
# B3LYP/6-311++G(d,p) empiricaldispersion=gd3bj scf=xqc pop=npa geom=check

CID_82416286_JID_1493_Energie_anion

-1 2
