%chk=JID_10337.chk
%mem=8GB
%nprocshared=4
# opt freq B3LYP/6-31G(d) empiricaldispersion=gd3bj scf=xqc

CID_80141263_JID_10337_neutraal

0 1
C          0.90527       -0.03060       -0.00946
C          0.21451        0.28424        1.30827
C          0.88245        1.38743        2.04448
N          0.36078        2.61077        2.14461
N          1.29505        3.27931        2.89336
C          2.33366        2.40120        3.19459
N          2.07867        1.21722        2.66925
C          3.54216        2.70449        4.01342
C          4.69743        3.19436        3.15454
C          1.16484        4.67413        3.20459
C         -0.02901        5.34825        2.93126
C         -0.00658        6.70386        3.27610
N          1.06295        7.35718        3.75635
C          2.14839        6.61158        3.95738
N          2.25816        5.30044        3.71489
O         -1.18488        7.39689        3.05485
C         -1.30747        8.74837        3.51502
C         -1.19676        8.90023        5.03076
C         -0.45080        9.73899        2.73033
N         -1.25027        4.71825        2.60558
H          0.91270        0.84347       -0.66960
H          0.38615       -0.84406       -0.52597
H          1.94422       -0.33802        0.15140
H         -0.83337        0.54196        1.11379
H          0.20768       -0.61311        1.93784
H          3.32429        3.41055        4.81947
H          3.85567        1.78021        4.51558
H          4.44448        4.11308        2.61632
H          5.57370        3.39622        3.77867
H          4.97940        2.44190        2.40974
H          3.02387        7.11418        4.35469
H         -2.34710        9.00377        3.27128
H         -0.16813        8.79727        5.38697
H         -1.55269        9.88686        5.34531
H         -1.79389        8.13549        5.53841
H         -0.53428        9.55102        1.65480
H         -0.77025       10.76695        2.93105
H          0.60927        9.67184        2.98903
H         -1.89997        5.34673        2.13867
H         -1.10472        3.83118        2.11002

--Link1--
%chk=JID_10337.chk
%mem=8GB
%nprocshared=4
# B3LYP/6-311++G(d,p) empiricaldispersion=gd3bj scf=xqc pop=npa geom=check

CID_80141263_JID_10337_Energie_neutraal

0 1

--Link1--
%chk=JID_10337.chk
%mem=8GB
%nprocshared=4
# B3LYP/6-311++G(d,p) empiricaldispersion=gd3bj scf=xqc pop=npa geom=check

CID_80141263_JID_10337_Energie_kation

1 2

--Link1--
%chk=JID_10337.chk
%mem=8GB
%nprocshared=4
# B3LYP/6-311++G(d,p) empiricaldispersion=gd3bj scf=xqc pop=npa geom=check

CID_80141263_JID_10337_Energie_anion

-1 2
