%chk=JID_1512.chk
%mem=8GB
%nprocshared=4
# opt freq B3LYP/6-31G(d) empiricaldispersion=gd3bj scf=xqc

CID_22005972_JID_1512_neutraal

0 1
C          1.03968       -0.04254       -0.08133
C          0.64716       -1.50402        0.06005
C          1.10441       -2.17621        1.36663
C          0.54177       -1.61859        2.71130
C         -1.01600       -1.45403        2.64973
N         -1.78672       -2.68277        2.46236
C          1.01667       -2.51405        3.95583
C          2.55824       -2.56847        4.05759
C          0.49656       -1.94585        5.29590
N          0.52842       -3.91097        3.87396
O          1.11466       -0.30411        2.87232
H          0.47070        0.59537        0.60029
H          0.83058        0.30318       -1.09909
H          2.10758        0.10091        0.11018
H         -0.43441       -1.60953       -0.07328
H          1.10487       -2.05560       -0.77130
H          0.85588       -3.23972        1.27547
H          2.19908       -2.10764        1.38086
H         -1.36944       -0.96465        3.56426
H         -1.28706       -0.74281        1.86104
H         -1.59396       -3.06376        1.53720
H         -1.39607       -3.38472        3.10759
H          2.99030       -1.56424        4.12555
H          2.87920       -3.11887        4.95079
H          3.01106       -3.07352        3.19811
H         -0.59558       -1.98197        5.36386
H          0.88233       -2.51922        6.14840
H          0.81227       -0.90787        5.44338
H          1.02716       -4.40073        3.12943
H          0.78313       -4.40800        4.72984
H          0.59641        0.17438        3.54188

--Link1--
%chk=JID_1512.chk
%mem=8GB
%nprocshared=4
# B3LYP/6-311++G(d,p) empiricaldispersion=gd3bj scf=xqc pop=npa geom=check

CID_22005972_JID_1512_Energie_neutraal

0 1

--Link1--
%chk=JID_1512.chk
%mem=8GB
%nprocshared=4
# B3LYP/6-311++G(d,p) empiricaldispersion=gd3bj scf=xqc pop=npa geom=check

CID_22005972_JID_1512_Energie_kation

1 2

--Link1--
%chk=JID_1512.chk
%mem=8GB
%nprocshared=4
# B3LYP/6-311++G(d,p) empiricaldispersion=gd3bj scf=xqc pop=npa geom=check

CID_22005972_JID_1512_Energie_anion

-1 2
