%chk=JID_4635.chk
%mem=8GB
%nprocshared=4
# opt freq B3LYP/6-31G(d) empiricaldispersion=gd3bj scf=xqc

CID_130639422_JID_4635_neutraal

0 1
C          0.92848       -0.02971        0.06326
C          0.38971        1.39378       -0.00116
C          0.80577        2.21537       -1.24170
C          0.40165        3.68448       -1.04477
C          1.57803        4.46341       -1.58522
C          2.75746        3.53728       -1.32731
O          2.23970        2.19604       -1.36834
C          3.40346        3.76076        0.03737
C          3.83223        3.65389       -2.40004
O          4.04157        4.66493       -3.06638
C          0.16034        1.65438       -2.52078
C          0.49551        2.31261       -3.89719
C          0.30824        0.92278       -4.53051
C          0.68972        0.33177       -3.15967
H          0.43621       -0.67956       -0.66259
H          0.73291       -0.45397        1.05404
H          2.00871       -0.06381       -0.10537
H         -0.70331        1.36799        0.08625
H          0.76826        1.89975        0.89679
H         -0.53985        3.95189       -1.53539
H          0.28562        3.92616        0.01896
H          1.68667        5.44395       -1.11010
H          1.43527        4.64592       -2.65613
H          4.20754        3.03561        0.20971
H          3.83294        4.76507        0.11717
H          2.68259        3.62465        0.85040
H          4.48650        2.77083       -2.50619
H         -0.93219        1.60621       -2.37798
H         -0.20072        3.08392       -4.23648
H          1.51945        2.68625       -4.00145
H          0.98023        0.68065       -5.35737
H         -0.72348        0.70967       -4.83287
H          1.76559        0.16089       -3.04018
H          0.15117       -0.58173       -2.89629

--Link1--
%chk=JID_4635.chk
%mem=8GB
%nprocshared=4
# B3LYP/6-311++G(d,p) empiricaldispersion=gd3bj scf=xqc pop=npa geom=check

CID_130639422_JID_4635_Energie_neutraal

0 1

--Link1--
%chk=JID_4635.chk
%mem=8GB
%nprocshared=4
# B3LYP/6-311++G(d,p) empiricaldispersion=gd3bj scf=xqc pop=npa geom=check

CID_130639422_JID_4635_Energie_kation

1 2

--Link1--
%chk=JID_4635.chk
%mem=8GB
%nprocshared=4
# B3LYP/6-311++G(d,p) empiricaldispersion=gd3bj scf=xqc pop=npa geom=check

CID_130639422_JID_4635_Energie_anion

-1 2
