%chk=JID_2679.chk
%mem=8GB
%nprocshared=4
# opt freq B3LYP/6-31G(d) empiricaldispersion=gd3bj scf=xqc

CID_103339425_JID_2679_neutraal

0 1
C          1.04446       -0.05132        0.07341
N          1.24316        0.77104        1.25779
C         -0.02196        1.34593        1.73913
C         -0.87620        0.35946        2.58157
N         -0.08208       -0.52639        3.46958
C         -0.93128       -1.61417        4.02006
C         -1.24373       -2.75419        3.02767
O         -0.26316       -3.79545        3.03873
C          0.94041       -3.43662        2.37479
C          0.53531        0.24134        4.56750
C          1.81432       -0.41466        5.00806
C          3.02998        0.13245        4.87297
H          0.67197        0.54804       -0.76354
H          0.34944       -0.87614        0.25665
H          2.00215       -0.48322       -0.23328
H          1.58701        0.16295        2.01036
H          0.23372        2.21000        2.36279
H         -0.61782        1.74681        0.90996
H         -1.62054        0.92415        3.15780
H         -1.43542       -0.25197        1.86475
H         -0.44075       -2.07288        4.88729
H         -1.87497       -1.18386        4.38035
H         -2.17772       -3.22744        3.35212
H         -1.41582       -2.40925        2.00310
H          0.73590       -3.08701        1.35893
H          1.48914       -2.68007        2.93881
H          1.56931       -4.32903        2.31023
H          0.77020        1.26605        4.25955
H         -0.14743        0.34197        5.42095
H          1.73397       -1.39711        5.46668
H          3.91750       -0.39535        5.20793
H          3.16979        1.10606        4.41208

--Link1--
%chk=JID_2679.chk
%mem=8GB
%nprocshared=4
# B3LYP/6-311++G(d,p) empiricaldispersion=gd3bj scf=xqc pop=npa geom=check

CID_103339425_JID_2679_Energie_neutraal

0 1

--Link1--
%chk=JID_2679.chk
%mem=8GB
%nprocshared=4
# B3LYP/6-311++G(d,p) empiricaldispersion=gd3bj scf=xqc pop=npa geom=check

CID_103339425_JID_2679_Energie_kation

1 2

--Link1--
%chk=JID_2679.chk
%mem=8GB
%nprocshared=4
# B3LYP/6-311++G(d,p) empiricaldispersion=gd3bj scf=xqc pop=npa geom=check

CID_103339425_JID_2679_Energie_anion

-1 2
