%chk=JID_4209.chk
%mem=8GB
%nprocshared=4
# opt freq B3LYP/6-31G(d) empiricaldispersion=gd3bj scf=xqc

CID_131207715_JID_4209_neutraal

0 1
C         -2.24300       -0.04000       -0.00500
C         -0.78144        0.13930        0.02220
N          0.06728       -0.85647        0.29997
O          1.31137       -0.22241        0.25611
C          1.07818        1.09677       -0.03829
N         -0.19608        1.35365       -0.20752
N          2.16951        1.88343       -0.07270
C          2.09896        3.34061       -0.13858
C          0.87102        4.19588       -0.20387
C          1.70006        4.18335        1.06032
C          1.08961        3.59601        2.31499
C          1.73924        4.38338        3.45442
C          2.02231        5.74666        2.83825
C          2.50925        5.40250        1.43163
H         -2.70508        0.49055        0.83313
H         -2.65863        0.35915       -0.93534
H         -2.52128       -1.09633        0.06424
H          3.03511        1.45634        0.23735
H          2.93834        3.71367       -0.72584
H         -0.11343        3.74770       -0.17728
H          0.90752        5.07177       -0.84327
H          1.28170        2.52677        2.43699
H          0.00537        3.75722        2.32030
H          2.68099        3.90493        3.74916
H          1.09539        4.44268        4.33650
H          1.09544        6.33039        2.78335
H          2.75909        6.32177        3.40558
H          2.36714        6.24282        0.74523
H          3.57486        5.14655        1.45393

--Link1--
%chk=JID_4209.chk
%mem=8GB
%nprocshared=4
# B3LYP/6-311++G(d,p) empiricaldispersion=gd3bj scf=xqc pop=npa geom=check

CID_131207715_JID_4209_Energie_neutraal

0 1

--Link1--
%chk=JID_4209.chk
%mem=8GB
%nprocshared=4
# B3LYP/6-311++G(d,p) empiricaldispersion=gd3bj scf=xqc pop=npa geom=check

CID_131207715_JID_4209_Energie_kation

1 2

--Link1--
%chk=JID_4209.chk
%mem=8GB
%nprocshared=4
# B3LYP/6-311++G(d,p) empiricaldispersion=gd3bj scf=xqc pop=npa geom=check

CID_131207715_JID_4209_Energie_anion

-1 2
