%chk=JID_9255.chk
%mem=8GB
%nprocshared=4
# opt freq B3LYP/6-31G(d) empiricaldispersion=gd3bj scf=xqc

CID_114609499_JID_9255_neutraal

0 1
C          1.09926        0.00382       -0.01157
C          0.44358       -0.66958       -1.21943
C          1.21648       -1.91290       -1.66515
N         -0.99753       -0.94421       -1.02255
C         -1.94097       -0.03212       -1.69402
C         -1.94136       -0.12633       -3.22431
C         -2.63820       -1.36449       -3.76736
O         -4.04370       -1.27231       -3.58156
C         -1.38567       -1.85208       -0.02119
O         -0.57597       -2.38035        0.73570
C         -2.79651       -2.15032        0.10160
C         -3.55572       -3.00787       -0.68036
C         -4.87862       -3.00553       -0.18369
C         -4.89213       -2.18823        0.92165
N         -3.61945       -1.71035        1.11870
C         -3.21802       -0.89960        2.26213
C         -3.41642        0.59414        2.02322
O         -4.80658        0.91720        2.11526
C         -5.05037        2.29303        1.85640
H          1.17129       -0.66284        0.85228
H          0.52869        0.88690        0.29552
H          2.11558        0.32828       -0.25993
H          0.52548        0.04956       -2.04248
H          1.28400       -2.66803       -0.87672
H          0.73346       -2.37762       -2.53153
H          2.23931       -1.64579       -1.95177
H         -2.95757       -0.14946       -1.31265
H         -1.63631        0.98172       -1.40390
H         -2.46083        0.76006       -3.60968
H         -0.92059       -0.09618       -3.61721
H         -2.46411       -1.43254       -4.84604
H         -2.26236       -2.28637       -3.31554
H         -4.24074       -1.45587       -2.64598
H         -3.18618       -3.57984       -1.52213
H         -5.72479       -3.55725       -0.57326
H         -5.69522       -1.92392        1.59888
H         -3.80933       -1.24220        3.11941
H         -2.16624       -1.11692        2.47098
H         -2.88132        1.15406        2.79861
H         -3.02984        0.89238        1.04254
H         -4.52394        2.91887        2.58318
H         -4.73975        2.55149        0.83958
H         -6.12427        2.47565        1.95029

--Link1--
%chk=JID_9255.chk
%mem=8GB
%nprocshared=4
# B3LYP/6-311++G(d,p) empiricaldispersion=gd3bj scf=xqc pop=npa geom=check

CID_114609499_JID_9255_Energie_neutraal

0 1

--Link1--
%chk=JID_9255.chk
%mem=8GB
%nprocshared=4
# B3LYP/6-311++G(d,p) empiricaldispersion=gd3bj scf=xqc pop=npa geom=check

CID_114609499_JID_9255_Energie_kation

1 2

--Link1--
%chk=JID_9255.chk
%mem=8GB
%nprocshared=4
# B3LYP/6-311++G(d,p) empiricaldispersion=gd3bj scf=xqc pop=npa geom=check

CID_114609499_JID_9255_Energie_anion

-1 2
