%chk=JID_7417.chk
%mem=8GB
%nprocshared=4
# opt freq B3LYP/6-31G(d) empiricaldispersion=gd3bj scf=xqc

CID_113854626_JID_7417_neutraal

0 1
C          2.17000       -0.13900       -0.02600
N          0.73219       -0.13417       -0.01455
C         -0.10579       -1.18524        0.17250
N         -1.34803       -0.76706        0.10918
C         -1.21294        0.57918       -0.08837
N          0.04977        1.00552       -0.21734
O         -2.15984        1.50471       -0.29289
C         -3.39073        1.28080        0.21624
O         -3.70967        0.39913        1.01143
N         -4.35478        2.18836       -0.16089
C         -4.33560        3.28631       -1.04140
C         -5.50598        4.05423       -1.10017
C         -5.60012        5.14779       -1.96125
C         -4.51603        5.49401       -2.76440
C         -3.32129        4.77798       -2.68521
C         -3.26090        3.64377       -1.86162
N         -2.28215        5.04678       -3.58797
H          2.51058        0.22623       -0.99802
H          2.52460        0.51476        0.77464
H          2.53220       -1.15710        0.13665
H          0.22350       -2.20104        0.34023
H         -5.22529        1.99914        0.31890
H         -6.36725        3.80486       -0.48499
H         -6.52175        5.72098       -2.01603
H         -4.61170        6.32688       -3.45570
H         -2.35344        3.05407       -1.89928
H         -2.24656        6.01409       -3.89352
H         -1.37590        4.71040       -3.27440

--Link1--
%chk=JID_7417.chk
%mem=8GB
%nprocshared=4
# B3LYP/6-311++G(d,p) empiricaldispersion=gd3bj scf=xqc pop=npa geom=check

CID_113854626_JID_7417_Energie_neutraal

0 1

--Link1--
%chk=JID_7417.chk
%mem=8GB
%nprocshared=4
# B3LYP/6-311++G(d,p) empiricaldispersion=gd3bj scf=xqc pop=npa geom=check

CID_113854626_JID_7417_Energie_kation

1 2

--Link1--
%chk=JID_7417.chk
%mem=8GB
%nprocshared=4
# B3LYP/6-311++G(d,p) empiricaldispersion=gd3bj scf=xqc pop=npa geom=check

CID_113854626_JID_7417_Energie_anion

-1 2
