%chk=JID_8369.chk
%mem=8GB
%nprocshared=4
# opt freq B3LYP/6-31G(d) empiricaldispersion=gd3bj scf=xqc

CID_113943109_JID_8369_neutraal

0 1
C          1.08180       -0.05380       -0.02036
C          0.33659        0.73624        1.04699
C          0.92191        2.12981        1.30684
C          1.09138        3.04747        0.08914
C         -0.19755        3.32279       -0.67928
N          0.01084        4.32209       -1.71167
C         -0.86733        4.71300       -2.67888
O         -0.52960        5.60033       -3.46180
C         -2.24225        4.07185       -2.72216
C         -2.77979        3.95921       -4.15146
C         -1.96202        3.01605       -5.04585
C         -1.97803        1.57705       -4.58768
C         -3.14288        0.80661       -4.70384
C         -3.16079       -0.52091       -4.27296
C         -2.01479       -1.09229       -3.72369
C         -0.84994       -0.33677       -3.60613
C         -0.83067        0.99173       -4.03521
O         -1.03304        0.86481        0.68169
H          0.98013        0.40744       -1.00734
H          0.66132       -1.06167       -0.10787
H          2.14500       -0.14264        0.22178
H          0.36419        0.17493        1.98819
H          0.28154        2.64782        2.03238
H          1.90565        2.01359        1.77874
H          1.50993        3.99975        0.44078
H          1.84181        2.62897       -0.59288
H         -0.54607        2.41302       -1.17296
H         -0.98714        3.69007       -0.01546
H          0.87533        4.85020       -1.72027
H         -2.25289        3.08987       -2.24663
H         -2.90971        4.71600       -2.13728
H         -3.82206        3.62027       -4.10764
H         -2.79602        4.95183       -4.61833
H         -2.36515        3.05315       -6.06616
H         -0.92798        3.37228       -5.12771
H         -4.04370        1.23756       -5.13497
H         -4.06912       -1.10959       -4.37033
H         -2.02882       -2.12732       -3.39342
H          0.04632       -0.78284       -3.18411
H          0.08605        1.56902       -3.93462
H         -1.38470       -0.02867        0.52183

--Link1--
%chk=JID_8369.chk
%mem=8GB
%nprocshared=4
# B3LYP/6-311++G(d,p) empiricaldispersion=gd3bj scf=xqc pop=npa geom=check

CID_113943109_JID_8369_Energie_neutraal

0 1

--Link1--
%chk=JID_8369.chk
%mem=8GB
%nprocshared=4
# B3LYP/6-311++G(d,p) empiricaldispersion=gd3bj scf=xqc pop=npa geom=check

CID_113943109_JID_8369_Energie_kation

1 2

--Link1--
%chk=JID_8369.chk
%mem=8GB
%nprocshared=4
# B3LYP/6-311++G(d,p) empiricaldispersion=gd3bj scf=xqc pop=npa geom=check

CID_113943109_JID_8369_Energie_anion

-1 2
