%chk=JID_3017.chk
%mem=8GB
%nprocshared=4
# opt freq B3LYP/6-31G(d) empiricaldispersion=gd3bj scf=xqc

CID_143786994_JID_3017_neutraal

0 1
C          1.07617       -0.06023        0.02388
C          0.85882       -1.12920        1.08376
C          1.72253       -0.93496        2.33194
C          1.49984        0.37468        3.09869
C          0.07014        0.61565        3.59456
N         -0.30016       -0.39505        4.58221
C         -1.55312       -0.18619        5.18905
N         -2.28832        0.90839        4.90409
C         -3.46690        1.03483        5.56302
C         -3.92618        0.10703        6.48976
N         -3.20189       -0.99296        6.79206
C         -2.01875       -1.10583        6.13506
C         -5.23522        0.30311        7.18561
H          0.73869        0.92120        0.36976
H          0.50862       -0.30602       -0.87943
H          2.13339        0.01288       -0.24992
H         -0.20189       -1.16972        1.35387
H          1.10239       -2.10517        0.64647
H          1.55901       -1.78480        3.00521
H          2.77934       -0.98395        2.03988
H          2.18153        0.38435        3.95915
H          1.79784        1.21895        2.46586
H          0.04733        1.61289        4.05260
H         -0.63284        0.61728        2.75379
H         -0.28130       -1.33484        4.19648
H         -4.03978        1.92290        5.31840
H         -1.42819       -1.97632        6.39965
H         -5.43641       -0.52171        7.87678
H         -5.22259        1.23393        7.76107
H         -6.05010        0.34255        6.45618

--Link1--
%chk=JID_3017.chk
%mem=8GB
%nprocshared=4
# B3LYP/6-311++G(d,p) empiricaldispersion=gd3bj scf=xqc pop=npa geom=check

CID_143786994_JID_3017_Energie_neutraal

0 1

--Link1--
%chk=JID_3017.chk
%mem=8GB
%nprocshared=4
# B3LYP/6-311++G(d,p) empiricaldispersion=gd3bj scf=xqc pop=npa geom=check

CID_143786994_JID_3017_Energie_kation

1 2

--Link1--
%chk=JID_3017.chk
%mem=8GB
%nprocshared=4
# B3LYP/6-311++G(d,p) empiricaldispersion=gd3bj scf=xqc pop=npa geom=check

CID_143786994_JID_3017_Energie_anion

-1 2
