%chk=JID_4962.chk
%mem=8GB
%nprocshared=4
# opt freq B3LYP/6-31G(d) empiricaldispersion=gd3bj scf=xqc

CID_43209678_JID_4962_neutraal

0 1
C          1.03500        0.06603       -0.06645
C          0.33574       -1.05975        0.68041
C          0.44474       -0.95100        2.20699
C         -0.33593        0.21710        2.82235
C         -1.84929        0.00834        2.84739
C          0.20543        0.69356        4.17704
O          0.69323        1.82993        4.23330
N          0.10788       -0.08435        5.32030
C         -0.09952       -1.52567        5.38360
C          1.17553       -2.37320        5.33038
C          2.48955       -1.69226        5.70880
N          2.47910       -1.02035        7.00408
C          2.02153        0.37270        6.89200
C          0.52474        0.53583        6.58517
H          0.53818        1.02720        0.09096
H          1.02510       -0.13638       -1.14242
H          2.07869        0.15906        0.24989
H         -0.71481       -1.10804        0.37398
H          0.79422       -2.00785        0.37322
H          0.07790       -1.89803        2.61290
H          1.50369       -0.87916        2.48428
H         -0.17890        1.08905        2.17272
H         -2.13751       -0.94742        3.29063
H         -2.34369        0.80078        3.41982
H         -2.25742        0.02993        1.83143
H         -0.77556       -1.85220        4.59478
H         -0.63341       -1.73944        6.31824
H          1.02447       -3.25521        5.96681
H          1.29638       -2.77475        4.31751
H          3.26038       -2.47129        5.75407
H          2.81434       -1.01466        4.90920
H          1.89929       -1.52934        7.66832
H          2.62538        0.90539        6.14722
H          2.22559        0.86293        7.85108
H          0.28529        1.60580        6.56202
H         -0.07862        0.10939        7.39591

--Link1--
%chk=JID_4962.chk
%mem=8GB
%nprocshared=4
# B3LYP/6-311++G(d,p) empiricaldispersion=gd3bj scf=xqc pop=npa geom=check

CID_43209678_JID_4962_Energie_neutraal

0 1

--Link1--
%chk=JID_4962.chk
%mem=8GB
%nprocshared=4
# B3LYP/6-311++G(d,p) empiricaldispersion=gd3bj scf=xqc pop=npa geom=check

CID_43209678_JID_4962_Energie_kation

1 2

--Link1--
%chk=JID_4962.chk
%mem=8GB
%nprocshared=4
# B3LYP/6-311++G(d,p) empiricaldispersion=gd3bj scf=xqc pop=npa geom=check

CID_43209678_JID_4962_Energie_anion

-1 2
