%chk=JID_7225.chk
%mem=8GB
%nprocshared=4
# opt freq B3LYP/6-31G(d) empiricaldispersion=gd3bj scf=xqc

CID_43196137_JID_7225_neutraal

0 1
C          0.94329        0.03040       -0.07655
C          0.81924       -0.92832        1.09517
O          1.68314       -0.63464        2.18898
C          3.08285       -0.63948        1.92647
C          3.74985       -2.00802        2.09037
C          3.44830       -3.04371        1.00271
N          3.69873       -2.50173       -0.33224
C          3.37112       -3.42570       -1.42936
C          1.87345       -3.74583       -1.51665
C          3.81651       -2.83883       -2.76768
C          4.39267       -3.66928       -3.74105
C          4.75790       -3.15674       -4.99020
C          4.55129       -1.80573       -5.28515
C          3.97823       -0.96904       -4.32573
C          3.61029       -1.48418       -3.08066
C          4.91729       -1.28225       -6.56818
N          5.21197       -0.85835       -7.60788
H          0.88085        1.06804        0.26651
H          0.14537       -0.14983       -0.80325
H          1.89602       -0.08185       -0.59577
H         -0.20105       -0.85707        1.48847
H          0.94294       -1.96016        0.76852
H          3.32955       -0.16877        0.97150
H          3.51736        0.01634        2.69084
H          4.83579       -1.85348        2.12876
H          3.45288       -2.43510        3.05626
H          4.08728       -3.91932        1.17039
H          2.41810       -3.38517        1.12200
H          4.68734       -2.25822       -0.40862
H          3.92478       -4.35961       -1.26676
H          1.26989       -2.83567       -1.61097
H          1.65692       -4.37122       -2.39078
H          1.52258       -4.29641       -0.63865
H          4.55024       -4.72666       -3.53740
H          5.19717       -3.82134       -5.73180
H          3.80663        0.08451       -4.53833
H          3.15418       -0.81990       -2.35032

--Link1--
%chk=JID_7225.chk
%mem=8GB
%nprocshared=4
# B3LYP/6-311++G(d,p) empiricaldispersion=gd3bj scf=xqc pop=npa geom=check

CID_43196137_JID_7225_Energie_neutraal

0 1

--Link1--
%chk=JID_7225.chk
%mem=8GB
%nprocshared=4
# B3LYP/6-311++G(d,p) empiricaldispersion=gd3bj scf=xqc pop=npa geom=check

CID_43196137_JID_7225_Energie_kation

1 2

--Link1--
%chk=JID_7225.chk
%mem=8GB
%nprocshared=4
# B3LYP/6-311++G(d,p) empiricaldispersion=gd3bj scf=xqc pop=npa geom=check

CID_43196137_JID_7225_Energie_anion

-1 2
