%chk=JID_3614.chk
%mem=8GB
%nprocshared=4
# opt freq B3LYP/6-31G(d) empiricaldispersion=gd3bj scf=xqc

CID_104841011_JID_3614_neutraal

0 1
C          1.02514        0.09644       -0.00826
C          0.57908       -1.25542       -0.53782
C          0.95450       -2.42174        0.38233
C          0.39451       -2.33723        1.80663
C         -1.10183       -2.27547        1.82850
N         -1.79357       -1.15918        1.77874
C         -3.15307       -1.43275        1.74776
C         -3.47139       -2.78254        1.79854
S         -2.02979       -3.71324        1.90170
C         -4.80261       -3.45626        1.78783
N         -5.04371       -4.10998        0.50596
C         -4.09228       -0.26805        1.68980
C         -4.85462       -0.16809        0.37760
H          0.53347        0.35264        0.93399
H          0.77680        0.88105       -0.73048
H          2.10818        0.11570        0.14953
H         -0.50247       -1.23949       -0.71318
H          1.04508       -1.42081       -1.51673
H          0.61603       -3.35321       -0.08905
H          2.04818       -2.48623        0.44293
H          0.74557       -3.20579        2.37755
H          0.79973       -1.45949        2.32319
H         -4.85844       -4.19896        2.59130
H         -5.59946       -2.72898        1.97586
H         -6.00431       -4.44233        0.47136
H         -4.93956       -3.43005       -0.24516
H         -4.79947       -0.33129        2.52476
H         -3.52426        0.65978        1.83307
H         -5.49684       -1.03899        0.21618
H         -5.49633        0.71903        0.38136
H         -4.17143       -0.09271       -0.47464

--Link1--
%chk=JID_3614.chk
%mem=8GB
%nprocshared=4
# B3LYP/6-311++G(d,p) empiricaldispersion=gd3bj scf=xqc pop=npa geom=check

CID_104841011_JID_3614_Energie_neutraal

0 1

--Link1--
%chk=JID_3614.chk
%mem=8GB
%nprocshared=4
# B3LYP/6-311++G(d,p) empiricaldispersion=gd3bj scf=xqc pop=npa geom=check

CID_104841011_JID_3614_Energie_kation

1 2

--Link1--
%chk=JID_3614.chk
%mem=8GB
%nprocshared=4
# B3LYP/6-311++G(d,p) empiricaldispersion=gd3bj scf=xqc pop=npa geom=check

CID_104841011_JID_3614_Energie_anion

-1 2
