%chk=JID_6878.chk
%mem=8GB
%nprocshared=4
# opt freq B3LYP/6-31G(d) empiricaldispersion=gd3bj scf=xqc

CID_118535409_JID_6878_neutraal

0 1
C          0.91813       -0.01825        0.05444
C         -0.06886       -1.18575        0.11179
C          0.01480       -1.86911        1.47913
C         -1.51726       -0.73475       -0.16084
C         -1.77334       -0.15063       -1.55808
C         -1.51543       -1.13190       -2.70247
O         -2.44977       -2.21177       -2.61193
C         -1.85093       -3.45792       -2.63625
C         -2.21979       -4.32986       -1.60430
C         -1.69719       -5.61869       -1.54073
C         -0.80870       -6.08123       -2.51495
C         -0.48214       -5.21372       -3.56554
C         -0.99138       -3.91497       -3.66236
C         -0.47638       -3.36501       -4.87300
C          0.34175       -4.30571       -5.45529
N          0.33393       -5.41640       -4.65589
H          0.63822        0.77316        0.75786
H          0.96363        0.41584       -0.94878
H          1.92969       -0.35298        0.30872
H          0.23199       -1.92767       -0.63621
H         -0.26904       -1.18473        2.28553
H         -0.65041       -2.73832        1.51960
H          1.03303       -2.22185        1.67552
H         -2.19580       -1.58171       -0.00175
H         -1.80260        0.02178        0.58192
H         -2.82459        0.16218       -1.59599
H         -1.17045        0.75121       -1.70705
H         -1.69761       -0.62237       -3.65542
H         -0.46756       -1.45214       -2.69418
H         -2.91522       -3.99018       -0.84127
H         -1.98783       -6.27493       -0.72375
H         -0.40465       -7.08717       -2.46315
H         -0.68507       -2.38236       -5.27369
H          0.91992       -4.28275       -6.36907
H          0.83874       -6.27216       -4.84083

--Link1--
%chk=JID_6878.chk
%mem=8GB
%nprocshared=4
# B3LYP/6-311++G(d,p) empiricaldispersion=gd3bj scf=xqc pop=npa geom=check

CID_118535409_JID_6878_Energie_neutraal

0 1

--Link1--
%chk=JID_6878.chk
%mem=8GB
%nprocshared=4
# B3LYP/6-311++G(d,p) empiricaldispersion=gd3bj scf=xqc pop=npa geom=check

CID_118535409_JID_6878_Energie_kation

1 2

--Link1--
%chk=JID_6878.chk
%mem=8GB
%nprocshared=4
# B3LYP/6-311++G(d,p) empiricaldispersion=gd3bj scf=xqc pop=npa geom=check

CID_118535409_JID_6878_Energie_anion

-1 2
