%chk=JID_2549.chk
%mem=8GB
%nprocshared=4
# opt freq B3LYP/6-31G(d) empiricaldispersion=gd3bj scf=xqc

CID_77749468_JID_2549_neutraal

0 1
C          0.90422        0.02852       -0.00352
C          0.60142       -1.40379        0.44312
C          1.88113       -2.27701        0.39366
C          1.79996       -3.45500        1.37340
C          0.34074       -3.97925        1.50226
C          0.16306       -2.80772        2.52481
C         -0.23214       -1.51854        1.76840
N         -0.18052       -0.31948        2.61129
C         -1.13187       -0.32850        3.71033
C          1.69196       -3.04762        2.89461
C          2.56742       -1.87504        3.34294
C          1.91612       -4.19429        3.90315
H          1.59839        0.52632        0.68140
H         -0.01332        0.62325       -0.06303
H          1.36322        0.03012       -0.99833
H         -0.05756       -1.81026       -0.34024
H          1.99542       -2.66525       -0.62683
H          2.78338       -1.68609        0.58499
H          2.55336       -4.22001        1.15783
H          0.23977       -4.98754        1.91741
H         -0.27870       -3.95613        0.59998
H         -0.54117       -3.04926        3.32944
H         -1.27827       -1.62708        1.44762
H          0.75653       -0.14285        2.95881
H         -0.87745       -1.07713        4.46619
H         -1.12286        0.64948        4.20190
H         -2.15271       -0.50479        3.35655
H          2.24813       -1.50737        4.32432
H          3.61492       -2.18671        3.42762
H          2.55437       -1.02883        2.65479
H          1.33053       -5.09084        3.68601
H          2.97028       -4.49328        3.91644
H          1.64330       -3.87114        4.91417

--Link1--
%chk=JID_2549.chk
%mem=8GB
%nprocshared=4
# B3LYP/6-311++G(d,p) empiricaldispersion=gd3bj scf=xqc pop=npa geom=check

CID_77749468_JID_2549_Energie_neutraal

0 1

--Link1--
%chk=JID_2549.chk
%mem=8GB
%nprocshared=4
# B3LYP/6-311++G(d,p) empiricaldispersion=gd3bj scf=xqc pop=npa geom=check

CID_77749468_JID_2549_Energie_kation

1 2

--Link1--
%chk=JID_2549.chk
%mem=8GB
%nprocshared=4
# B3LYP/6-311++G(d,p) empiricaldispersion=gd3bj scf=xqc pop=npa geom=check

CID_77749468_JID_2549_Energie_anion

-1 2
