%chk=JID_9237.chk
%mem=8GB
%nprocshared=4
# opt freq B3LYP/6-31G(d) empiricaldispersion=gd3bj scf=xqc

CID_104992381_JID_9237_neutraal

0 1
C          0.90182        0.01784       -0.00645
C         -0.23564       -0.80125        0.58636
C          0.09024       -2.29128        0.72460
N          1.21632       -2.50481        1.63083
C          1.48572       -3.92883        1.89564
C          3.01618       -4.18194        2.10156
C          3.84701       -3.84867        0.84311
C          4.40709       -2.43299        0.80020
C          5.20552       -2.11610        2.05708
C          4.37992       -2.27136        3.33954
C          3.67932       -3.64399        3.38732
C          3.41795       -1.09442        3.58622
C          4.13324        0.16982        4.05063
C          0.55154       -4.43555        3.03779
C          0.82331       -5.81968        3.62182
C          0.02890       -5.73604        4.91126
C          0.29251       -4.30904        5.35374
O          0.54551       -3.53515        4.16960
C          0.40791       -6.96688        2.71919
H          1.76888        0.04309        0.65933
H          0.57659        1.05096       -0.16568
H          1.21820       -0.39016       -0.97164
H         -0.51110       -0.38501        1.56301
H         -1.11554       -0.69703       -0.05987
H         -0.80712       -2.80184        1.09073
H          0.32658       -2.70163       -0.26427
H          1.00142       -2.07378        2.53691
H          1.22187       -4.51135        1.00085
H          3.08740       -5.27705        2.17860
H          4.69718       -4.54412        0.80767
H          3.26709       -4.04408       -0.06679
H          3.60521       -1.70302        0.66048
H          5.06267       -2.33646       -0.07359
H          5.62672       -1.10848        1.97924
H          6.06384       -2.79919        2.10788
H          5.08939       -2.26592        4.17964
H          3.00093       -3.68971        4.24201
H          4.47101       -4.36808        3.63485
H          2.86085       -0.84482        2.68219
H          2.68710       -1.36844        4.35607
H          4.81695        0.55093        3.28704
H          3.40168        0.95629        4.26308
H          4.70416       -0.01478        4.96602
H         -0.47871       -4.41794        2.65469
H          1.87886       -5.93498        3.89238
H          0.33252       -6.47113        5.66206
H         -1.04209       -5.87328        4.71757
H          1.18324       -4.24804        5.98744
H         -0.55245       -3.87902        5.89896
H          1.00309       -6.97478        1.80066
H          0.55442       -7.92674        3.22514
H         -0.64766       -6.89403        2.43668

--Link1--
%chk=JID_9237.chk
%mem=8GB
%nprocshared=4
# B3LYP/6-311++G(d,p) empiricaldispersion=gd3bj scf=xqc pop=npa geom=check

CID_104992381_JID_9237_Energie_neutraal

0 1

--Link1--
%chk=JID_9237.chk
%mem=8GB
%nprocshared=4
# B3LYP/6-311++G(d,p) empiricaldispersion=gd3bj scf=xqc pop=npa geom=check

CID_104992381_JID_9237_Energie_kation

1 2

--Link1--
%chk=JID_9237.chk
%mem=8GB
%nprocshared=4
# B3LYP/6-311++G(d,p) empiricaldispersion=gd3bj scf=xqc pop=npa geom=check

CID_104992381_JID_9237_Energie_anion

-1 2
