%chk=JID_10874.chk
%mem=8GB
%nprocshared=4
# opt freq B3LYP/6-31G(d) empiricaldispersion=gd3bj scf=xqc

CID_104060167_JID_10874_neutraal

0 1
C          1.05252       -0.05747        0.06276
C          2.07941       -0.21822       -1.05047
C          2.61129       -1.64652       -1.12887
O          1.49526       -2.52198       -1.30588
C          1.74760       -3.80674       -0.91156
C          1.73725       -4.87680       -1.82675
N          1.99305       -6.13263       -1.37593
C          2.18190       -6.33980       -0.05221
C          2.14198       -5.34263        0.89830
C          1.91646       -4.05151        0.45647
N          1.47239       -4.73635       -3.18858
C          1.67523       -5.91494       -4.04553
C          0.56946       -6.96207       -3.90361
C          0.26278       -7.57792       -5.24777
N          1.01957       -8.48610       -5.77159
N         -0.82193       -7.15459       -5.94839
C          0.55575       -3.69325       -3.68606
C         -0.86294       -3.78215       -3.09307
O         -1.26610       -2.50495       -2.58843
C         -2.43241       -2.60377       -1.78349
H          0.16084       -0.66489       -0.12178
H          0.73356        0.98745        0.13157
H          1.47408       -0.34762        1.03042
H          1.60229        0.04874       -2.00068
H          2.91191        0.47588       -0.89080
H          3.28015       -1.74543       -1.99180
H          3.18701       -1.86698       -0.22190
H          2.35931       -7.37332        0.23020
H          2.27834       -5.56253        1.95014
H          1.85739       -3.23571        1.17052
H          1.75407       -5.57599       -5.08685
H          2.65165       -6.37386       -3.83735
H          0.88425       -7.76055       -3.22193
H         -0.35458       -6.53783       -3.49914
H          1.79197       -8.71987       -5.13772
H         -1.15597       -6.21207       -5.79766
H         -0.80527       -7.44897       -6.91943
H          0.99489       -2.69832       -3.56206
H          0.46155       -3.80086       -4.77509
H         -1.56944       -4.07002       -3.88076
H         -0.92493       -4.53273       -2.29772
H         -3.28088       -2.93949       -2.38659
H         -2.26969       -3.28977       -0.94583
H         -2.65668       -1.61348       -1.37850

--Link1--
%chk=JID_10874.chk
%mem=8GB
%nprocshared=4
# B3LYP/6-311++G(d,p) empiricaldispersion=gd3bj scf=xqc pop=npa geom=check

CID_104060167_JID_10874_Energie_neutraal

0 1

--Link1--
%chk=JID_10874.chk
%mem=8GB
%nprocshared=4
# B3LYP/6-311++G(d,p) empiricaldispersion=gd3bj scf=xqc pop=npa geom=check

CID_104060167_JID_10874_Energie_kation

1 2

--Link1--
%chk=JID_10874.chk
%mem=8GB
%nprocshared=4
# B3LYP/6-311++G(d,p) empiricaldispersion=gd3bj scf=xqc pop=npa geom=check

CID_104060167_JID_10874_Energie_anion

-1 2
