%chk=JID_3912.chk
%mem=8GB
%nprocshared=4
# opt freq B3LYP/6-31G(d) empiricaldispersion=gd3bj scf=xqc

CID_114813280_JID_3912_neutraal

0 1
C          0.93517       -0.05250       -0.05515
C          0.29458       -1.27634        0.58291
C          1.32185       -2.13815        1.32056
N          0.95023       -2.30823        2.75201
C          1.18187       -3.68338        3.25664
C          2.62985       -4.14352        3.34365
N          3.38242       -3.90338        4.36978
N          3.19500       -4.84972        2.32206
S          1.41493       -1.03249        3.75141
O          2.83225       -1.09379        3.98971
O          0.77485        0.17558        3.29314
N          0.60854       -1.47729        5.15586
C          1.03859       -0.73642        6.35430
H          0.17906        0.53937       -0.58053
H          1.69841       -0.34704       -0.78285
H          1.40757        0.58907        0.69420
H         -0.52412       -0.96191        1.23975
H         -0.16462       -1.87396       -0.21440
H          1.33984       -3.11714        0.82731
H          2.34061       -1.74089        1.24074
H          0.71854       -3.80897        4.24090
H          0.64231       -4.38267        2.60440
H          2.88312       -3.31128        5.04642
H          2.89318       -4.63915        1.38109
H          4.20625       -4.88100        2.42261
H         -0.38794       -1.33864        4.97909
H          0.88989        0.33874        6.22080
H          0.42646       -1.05768        7.20215
H          2.08451       -0.94934        6.58962

--Link1--
%chk=JID_3912.chk
%mem=8GB
%nprocshared=4
# B3LYP/6-311++G(d,p) empiricaldispersion=gd3bj scf=xqc pop=npa geom=check

CID_114813280_JID_3912_Energie_neutraal

0 1

--Link1--
%chk=JID_3912.chk
%mem=8GB
%nprocshared=4
# B3LYP/6-311++G(d,p) empiricaldispersion=gd3bj scf=xqc pop=npa geom=check

CID_114813280_JID_3912_Energie_kation

1 2

--Link1--
%chk=JID_3912.chk
%mem=8GB
%nprocshared=4
# B3LYP/6-311++G(d,p) empiricaldispersion=gd3bj scf=xqc pop=npa geom=check

CID_114813280_JID_3912_Energie_anion

-1 2
