%chk=JID_7291.chk
%mem=8GB
%nprocshared=4
# opt freq B3LYP/6-31G(d) empiricaldispersion=gd3bj scf=xqc

CID_152329909_JID_7291_neutraal

0 1
C          0.95912        0.03721        0.08333
C          0.47417       -1.34470        0.53444
C          1.08956       -1.76844        1.88683
C          0.60962       -1.00820        3.10010
C          1.16500        0.23595        3.43424
C          0.71550        0.96627        4.54210
C         -0.29238        0.41741        5.34932
C         -0.78864        1.17407        6.55249
C         -0.53525        2.66739        6.38120
C          0.93098        2.89751        6.05082
N          1.34318        2.17345        4.85680
C         -0.83414       -0.83704        5.04005
C         -0.39145       -1.54016        3.92008
C         -1.06097       -1.42236        0.54507
N         -1.56721       -1.34833       -0.83407
N         -2.32519       -0.39399       -1.08503
N         -3.01661        0.48179       -1.31546
H          0.52037        0.83911        0.68506
H          0.68600        0.22349       -0.96077
H          2.04957        0.11062        0.15176
H          0.84530       -2.06292       -0.21039
H          0.89000       -2.83770        2.04129
H          2.18380       -1.69118        1.83345
H          1.97370        0.64125        2.83037
H         -0.27249        0.79933        7.44452
H         -1.86354        1.00849        6.68959
H         -0.80557        3.20115        7.29888
H         -1.16518        3.06463        5.57459
H          1.11473        3.96720        5.90148
H          1.56063        2.58097        6.89098
H          1.54097        2.74757        4.04269
H         -1.60806       -1.26939        5.66966
H         -0.82963       -2.51063        3.69843
H         -1.38216       -2.38326        0.96328
H         -1.49128       -0.63256        1.17430

--Link1--
%chk=JID_7291.chk
%mem=8GB
%nprocshared=4
# B3LYP/6-311++G(d,p) empiricaldispersion=gd3bj scf=xqc pop=npa geom=check

CID_152329909_JID_7291_Energie_neutraal

0 1

--Link1--
%chk=JID_7291.chk
%mem=8GB
%nprocshared=4
# B3LYP/6-311++G(d,p) empiricaldispersion=gd3bj scf=xqc pop=npa geom=check

CID_152329909_JID_7291_Energie_kation

1 2

--Link1--
%chk=JID_7291.chk
%mem=8GB
%nprocshared=4
# B3LYP/6-311++G(d,p) empiricaldispersion=gd3bj scf=xqc pop=npa geom=check

CID_152329909_JID_7291_Energie_anion

-1 2
