%chk=JID_1347.chk
%mem=8GB
%nprocshared=4
# opt freq B3LYP/6-31G(d) empiricaldispersion=gd3bj scf=xqc

CID_91266815_JID_1347_neutraal

0 1
C          1.08128        0.04340        0.03886
C          1.11349        0.77052        1.34471
C          0.45975        1.90820        1.63961
C          0.62471        2.54594        2.99135
O         -0.32388        2.50944        0.67067
C         -1.19354        3.59363        1.01859
C         -2.64554        3.13624        0.90597
C         -3.13751        2.04222        1.88750
C         -4.42042        2.88974        1.97320
N         -3.59296        4.06731        1.60504
C         -4.29804        4.91060        0.64666
H          0.43075        0.52234       -0.69855
H          0.72142       -0.97847        0.19370
H          2.09043       -0.00854       -0.38123
H          1.74356        0.31118        2.10318
H          1.00863        3.56641        2.89165
H         -0.32491        2.56530        3.53434
H          1.33760        1.99862        3.61806
H         -0.98511        4.03200        1.99781
H         -1.01058        4.38743        0.28468
H         -2.91338        2.90195       -0.13545
H         -3.25366        1.03911        1.46965
H         -2.58656        1.97972        2.83234
H         -4.87560        2.94418        2.96643
H         -5.18987        2.59655        1.24758
H         -4.72707        4.35873       -0.19770
H         -5.11185        5.44300        1.15117
H         -3.61625        5.66794        0.24534

--Link1--
%chk=JID_1347.chk
%mem=8GB
%nprocshared=4
# B3LYP/6-311++G(d,p) empiricaldispersion=gd3bj scf=xqc pop=npa geom=check

CID_91266815_JID_1347_Energie_neutraal

0 1

--Link1--
%chk=JID_1347.chk
%mem=8GB
%nprocshared=4
# B3LYP/6-311++G(d,p) empiricaldispersion=gd3bj scf=xqc pop=npa geom=check

CID_91266815_JID_1347_Energie_kation

1 2

--Link1--
%chk=JID_1347.chk
%mem=8GB
%nprocshared=4
# B3LYP/6-311++G(d,p) empiricaldispersion=gd3bj scf=xqc pop=npa geom=check

CID_91266815_JID_1347_Energie_anion

-1 2
