%chk=JID_6805.chk
%mem=8GB
%nprocshared=4
# opt freq B3LYP/6-31G(d) empiricaldispersion=gd3bj scf=xqc

CID_140249592_JID_6805_neutraal

0 1
C          0.94206        0.07014        0.04152
C          0.14114       -1.11003        0.57942
C          0.79509       -1.85578        1.77192
C          1.14820       -0.86381        2.89208
C         -0.10760       -3.03855        2.29925
C         -0.62206       -3.90846        1.14319
C          0.59099       -3.83632        3.46783
C         -0.06255       -3.42817        4.80565
C          0.58154       -5.38493        3.40846
C          1.58203       -6.01314        2.43765
O          2.92254       -5.76259        2.88923
C          3.69326       -4.96683        2.10853
O          3.34723       -4.43061        1.06631
C          5.05056       -4.78239        2.70166
C          5.49802       -5.52633        3.72794
C          5.88392       -3.71508        2.05919
H          0.94174        0.91051        0.74165
H          0.49750        0.42770       -0.89320
H          1.97762       -0.21776       -0.16456
H         -0.85910       -0.76069        0.86270
H          0.01447       -1.80495       -0.25795
H          1.73551       -2.28974        1.40906
H          0.24831       -0.37752        3.28299
H          1.66527       -1.34815        3.72412
H          1.82967       -0.08462        2.53774
H         -1.00981       -2.56791        2.71697
H          0.18977       -4.23404        0.48807
H         -1.17657       -4.78177        1.49390
H         -1.33417       -3.34940        0.52622
H          1.64099       -3.52879        3.52740
H         -1.09699       -3.78516        4.86027
H          0.48686       -3.85268        5.65308
H         -0.07499       -2.34285        4.93954
H          0.84347       -5.76278        4.40682
H         -0.42764       -5.75884        3.20766
H          1.45125       -7.10102        2.45742
H          1.42174       -5.70359        1.40412
H          6.49183       -5.37786        4.13859
H          4.89665       -6.30603        4.18573
H          6.05548       -3.94323        1.00211
H          5.38214       -2.74421        2.13054
H          6.86330       -3.61663        2.53960

--Link1--
%chk=JID_6805.chk
%mem=8GB
%nprocshared=4
# B3LYP/6-311++G(d,p) empiricaldispersion=gd3bj scf=xqc pop=npa geom=check

CID_140249592_JID_6805_Energie_neutraal

0 1

--Link1--
%chk=JID_6805.chk
%mem=8GB
%nprocshared=4
# B3LYP/6-311++G(d,p) empiricaldispersion=gd3bj scf=xqc pop=npa geom=check

CID_140249592_JID_6805_Energie_kation

1 2

--Link1--
%chk=JID_6805.chk
%mem=8GB
%nprocshared=4
# B3LYP/6-311++G(d,p) empiricaldispersion=gd3bj scf=xqc pop=npa geom=check

CID_140249592_JID_6805_Energie_anion

-1 2
