%chk=JID_8031.chk
%mem=8GB
%nprocshared=4
# opt freq B3LYP/6-31G(d) empiricaldispersion=gd3bj scf=xqc

CID_144110778_JID_8031_neutraal

0 1
C          0.95366       -0.01608       -0.08714
C          3.83250        1.80553        2.31907
O          2.54983        1.39606        2.77651
C          2.46859        0.15888        3.35364
C          1.17159       -0.25926        3.65849
C          0.94184       -1.50553        4.24606
C          2.01425       -2.35459        4.54435
C          3.31537       -1.92518        4.24767
C          3.54152       -0.67884        3.65308
C          1.78356       -3.69256        5.20959
N          1.88319       -3.61040        6.66694
C          0.78064       -3.22686        7.40521
C          0.82695       -3.10234        8.73281
C          2.09366       -3.37785        9.42748
O          2.18098       -3.27762       10.64507
N          3.13809       -3.74719        8.63208
C          3.10816       -3.87841        7.26734
O          4.12130       -4.21811        6.65948
H          0.27889       -0.78936        0.28640
H          0.73222        0.93144        0.40860
H          0.81599        0.09762       -1.16464
H          1.98696       -0.30405        0.11793
H          3.71784        2.77758        1.82979
H          4.23130        1.10514        1.57745
H          4.52620        1.93367        3.15628
H          0.33141        0.39236        3.43059
H         -0.07994       -1.80225        4.46812
H          4.16794       -2.56098        4.48415
H          4.56732       -0.39312        3.44610
H          0.79607       -4.08839        4.93879
H          2.51033       -4.41950        4.82578
H         -0.13682       -3.02417        6.86072
H         -0.02105       -2.80174        9.33276
H          4.01810       -3.93559        9.08470

--Link1--
%chk=JID_8031.chk
%mem=8GB
%nprocshared=4
# B3LYP/6-311++G(d,p) empiricaldispersion=gd3bj scf=xqc pop=npa geom=check

CID_144110778_JID_8031_Energie_neutraal

0 1

--Link1--
%chk=JID_8031.chk
%mem=8GB
%nprocshared=4
# B3LYP/6-311++G(d,p) empiricaldispersion=gd3bj scf=xqc pop=npa geom=check

CID_144110778_JID_8031_Energie_kation

1 2

--Link1--
%chk=JID_8031.chk
%mem=8GB
%nprocshared=4
# B3LYP/6-311++G(d,p) empiricaldispersion=gd3bj scf=xqc pop=npa geom=check

CID_144110778_JID_8031_Energie_anion

-1 2
