%chk=JID_9779.chk
%mem=8GB
%nprocshared=4
# opt freq B3LYP/6-31G(d) empiricaldispersion=gd3bj scf=xqc

CID_108115370_JID_9779_neutraal

0 1
C          1.86400        1.49500        0.03800
C          0.65133        0.71194       -0.37945
C          0.74462       -0.62328       -0.81364
C         -0.43824       -1.35737       -1.09390
C         -1.67235       -0.69943       -1.09980
C         -1.75332        0.64531       -0.74466
C         -0.60347        1.34096       -0.37362
N         -0.29948       -2.74444       -1.41868
C         -1.36931       -3.63743       -1.67543
C         -1.87023       -4.41865       -0.62400
C         -2.96589       -5.25542       -0.81924
C         -3.58504       -5.30707       -2.06467
C         -3.12098       -4.51800       -3.12797
C         -1.99550       -3.68597       -2.94151
C         -1.47976       -2.82535       -4.07626
C         -1.97189       -3.26529       -5.45361
C         -3.47449       -3.49985       -5.42599
C         -3.81095       -4.63665       -4.46594
N          1.98019       -1.32345       -0.77942
H          2.41482        0.96160        0.81951
H          2.51990        1.66251       -0.82220
H          1.59016        2.47378        0.44623
H         -2.58466       -1.23163       -1.35259
H         -2.71830        1.14527       -0.73698
H         -0.69432        2.38262       -0.07301
H          0.32735       -3.12572       -0.70763
H         -1.41383       -4.36636        0.36102
H         -3.34169       -5.85999        0.00156
H         -4.43928       -5.96603       -2.20525
H         -0.38349       -2.83486       -4.08978
H         -1.80459       -1.79299       -3.89983
H         -1.72212       -2.49818       -6.19515
H         -1.45931       -4.18656       -5.75817
H         -3.83886       -3.74487       -6.42982
H         -3.98577       -2.58064       -5.11300
H         -3.51216       -5.59130       -4.91714
H         -4.89789       -4.66459       -4.32289
H          1.96796       -2.06054       -1.48441
H          2.77496       -0.70845       -0.92012

--Link1--
%chk=JID_9779.chk
%mem=8GB
%nprocshared=4
# B3LYP/6-311++G(d,p) empiricaldispersion=gd3bj scf=xqc pop=npa geom=check

CID_108115370_JID_9779_Energie_neutraal

0 1

--Link1--
%chk=JID_9779.chk
%mem=8GB
%nprocshared=4
# B3LYP/6-311++G(d,p) empiricaldispersion=gd3bj scf=xqc pop=npa geom=check

CID_108115370_JID_9779_Energie_kation

1 2

--Link1--
%chk=JID_9779.chk
%mem=8GB
%nprocshared=4
# B3LYP/6-311++G(d,p) empiricaldispersion=gd3bj scf=xqc pop=npa geom=check

CID_108115370_JID_9779_Energie_anion

-1 2
