%chk=JID_9604.chk
%mem=8GB
%nprocshared=4
# opt=(cartesian,calcfc) freq B3LYP/6-31G(d) empiricaldispersion=gd3bj scf=xqc

CID_116537586_JID_9604_neutraal

0 1
6	-1.069776	 3.043118	 -0.227502
6	0.429875	 2.989626	 -0.473174
8	0.887612	 1.617770	 -0.581842
6	1.090423	 0.959358	 0.577680
8	0.951518	 1.447391	 1.667333
6	1.506501	 -0.491714	 0.325725
6	0.685306	 -1.076875	 -0.836278
8	1.136649	 -1.325536	 -1.943222
7	-0.636583	 -1.323642	 -0.560214
6	-1.377902	 -1.110032	 0.684490
6	-2.815964	 -0.865358	 0.411099
6	-3.964861	 -1.536881	 0.772047
6	-5.045591	 -0.771261	 0.206440
6	-4.504519	 0.252949	 -0.430095
8	-3.141638	 0.241995	 -0.333920
6	3.059733	 -0.657043	 0.190203
6	3.705402	 -0.200404	 1.512539
6	3.374652	 -2.152191	 -0.020866
6	3.635995	 0.173158	 -0.967284
1	-1.605226	 2.446250	 -0.971029
1	-1.427136	 4.078676	 -0.286911
1	-1.308839	 2.651999	 0.764740
1	0.703531	 3.431548	 -1.433654
1	0.986603	 3.477864	 0.329139
1	1.228228	 -1.019575	 1.244120
1	-1.143846	 -1.711191	 -1.338832
1	-1.303108	 -1.979386	 1.350913
1	-0.955069	 -0.255911	 1.220907
1	-4.007558	 -2.432858	 1.350545
1	-6.114394	 -1.014540	 0.296570
1	-4.905251	 1.099904	 -1.014631
1	3.335722	 -0.785688	 2.361826
1	4.790780	 -0.337341	 1.455837
1	3.508732	 0.854688	 1.724668
1	2.990966	 -2.511182	 -0.977183
1	4.458996	 -2.308402	 -0.006372
1	2.936869	 -2.756274	 0.782955
1	3.143241	 -0.082637	 -1.905168
1	3.501332	 1.244776	 -0.789051
1	4.712751	 -0.016904	 -1.054828

--Link1--
%chk=JID_9604.chk
%mem=8GB
%nprocshared=4
# B3LYP/6-311++G(d,p) empiricaldispersion=gd3bj scf=xqc pop=npa geom=check

CID_116537586_JID_9604_Energie_neutraal

0 1

--Link1--
%chk=JID_9604.chk
%mem=8GB
%nprocshared=4
# B3LYP/6-311++G(d,p) empiricaldispersion=gd3bj scf=xqc pop=npa geom=check

CID_116537586_JID_9604_Energie_kation

1 2

--Link1--
%chk=JID_9604.chk
%mem=8GB
%nprocshared=4
# B3LYP/6-311++G(d,p) empiricaldispersion=gd3bj scf=xqc pop=npa geom=check

CID_116537586_JID_9604_Energie_anion

-1 2
