%chk=JID_7858.chk
%mem=8GB
%nprocshared=4
# opt freq B3LYP/6-31G(d) empiricaldispersion=gd3bj scf=xqc

CID_63103067_JID_7858_neutraal

0 1
C          1.02101        0.00650       -0.09755
C          0.68057        1.20415        0.79529
C          1.27816        2.51844        0.26288
N          0.88348        2.85047       -1.09358
C          1.70987        3.03523       -2.16499
C          0.89194        3.33421       -3.22912
C         -0.40991        3.30849       -2.69765
N         -0.42104        3.01375       -1.39509
N         -0.77277        1.30810        0.98028
C         -1.54984        0.45553        1.72627
O         -2.66874        0.15681        1.31458
C         -1.02486       -0.07648        2.95107
C         -0.26143        0.44030        3.97464
C         -0.09923       -0.61329        4.89575
N         -0.75045       -1.71609        4.51810
N         -1.34825       -1.34167        3.37105
N          0.20264        1.70103        4.09039
H          0.52274        0.07074       -1.07070
H          0.69673       -0.93008        0.36911
H          2.10086       -0.06016       -0.26563
H          1.14415        1.01380        1.76515
H          0.97543        3.36461        0.89136
H          2.37299        2.46396        0.28218
H          2.78401        2.94263       -2.08581
H          1.19209        3.54414       -4.24569
H         -1.34903        3.49223       -3.20412
H         -1.26750        1.64086        0.15151
H          0.44833       -0.62075        5.82859
H         -1.95981       -2.00017        2.89891
H          0.51248        2.04484        4.99629
H         -0.22396        2.43664        3.52938

--Link1--
%chk=JID_7858.chk
%mem=8GB
%nprocshared=4
# B3LYP/6-311++G(d,p) empiricaldispersion=gd3bj scf=xqc pop=npa geom=check

CID_63103067_JID_7858_Energie_neutraal

0 1

--Link1--
%chk=JID_7858.chk
%mem=8GB
%nprocshared=4
# B3LYP/6-311++G(d,p) empiricaldispersion=gd3bj scf=xqc pop=npa geom=check

CID_63103067_JID_7858_Energie_kation

1 2

--Link1--
%chk=JID_7858.chk
%mem=8GB
%nprocshared=4
# B3LYP/6-311++G(d,p) empiricaldispersion=gd3bj scf=xqc pop=npa geom=check

CID_63103067_JID_7858_Energie_anion

-1 2
