%chk=JID_8669.chk
%mem=8GB
%nprocshared=4
# opt freq B3LYP/6-31G(d) empiricaldispersion=gd3bj scf=xqc

CID_13104208_JID_8669_neutraal

0 1
C          1.05663       -0.04714       -0.06761
C          0.28653       -1.23311       -0.66338
C          0.23997       -2.37293        0.35121
C          0.80817       -3.61501        0.02817
C          0.78340       -4.67026        0.94209
C          0.19012       -4.49930        2.19029
C         -0.38083       -3.27385        2.52493
C         -0.35758       -2.21706        1.61222
C         -1.12968       -0.86193       -1.16502
C         -1.08319        0.28438       -2.17951
O         -0.79059        0.04846       -3.35604
C         -1.37637        1.69177       -1.76303
C         -1.81394        2.04043       -0.47952
C         -2.05878        3.37984       -0.15850
C         -1.87089        4.37767       -1.11279
C         -1.43944        4.04128       -2.39285
C         -1.19434        2.70539       -2.71681
O         -1.68739       -1.98159       -1.88161
H          2.02553       -0.37116        0.33025
H          0.50730        0.42979        0.75067
H          1.26173        0.71373       -0.82714
H          0.86680       -1.58238       -1.52937
H          1.27081       -3.77370       -0.94346
H          1.22420       -5.62741        0.67628
H          0.16889       -5.32215        2.89960
H         -0.84782       -3.14149        3.49729
H         -0.81314       -1.27309        1.89895
H         -1.82466       -0.65776       -0.35022
H         -1.97918        1.30308        0.29835
H         -2.39996        3.64552        0.83974
H         -2.06358        5.41751       -0.85960
H         -1.29424        4.81641       -3.14147
H         -0.85837        2.46037       -3.72339
H         -1.26063       -1.97920       -2.76221

--Link1--
%chk=JID_8669.chk
%mem=8GB
%nprocshared=4
# B3LYP/6-311++G(d,p) empiricaldispersion=gd3bj scf=xqc pop=npa geom=check

CID_13104208_JID_8669_Energie_neutraal

0 1

--Link1--
%chk=JID_8669.chk
%mem=8GB
%nprocshared=4
# B3LYP/6-311++G(d,p) empiricaldispersion=gd3bj scf=xqc pop=npa geom=check

CID_13104208_JID_8669_Energie_kation

1 2

--Link1--
%chk=JID_8669.chk
%mem=8GB
%nprocshared=4
# B3LYP/6-311++G(d,p) empiricaldispersion=gd3bj scf=xqc pop=npa geom=check

CID_13104208_JID_8669_Energie_anion

-1 2
