%chk=JID_5939.chk
%mem=8GB
%nprocshared=4
# opt freq B3LYP/6-31G(d) empiricaldispersion=gd3bj scf=xqc

CID_69586671_JID_5939_neutraal

0 1
C          0.95223       -0.08191        0.03175
C          0.07265       -0.18154        1.24791
O         -1.02044        0.37719        1.31008
N          0.50547       -0.93433        2.30007
C          1.78806       -1.59519        2.46460
C          2.82768       -0.69144        3.12834
C          2.53887       -0.33378        4.61478
C          3.01787        1.12330        4.82122
C          2.86211        1.59445        6.25694
C          3.59207        0.63842        7.17896
C          3.09863       -0.78988        6.97309
N          3.20471       -1.25122        5.57891
C          2.87802       -2.68450        5.38257
C          2.66192       -3.67264        6.50046
C          1.49822       -3.21993        5.67183
H          0.49968        0.60854       -0.68628
H          1.04570       -1.06275       -0.44145
H          1.93761        0.30478        0.30147
H         -0.14527       -0.94698        3.07714
H          1.60571       -2.50710        3.03296
H          2.15649       -1.90136        1.48054
H          3.81505       -1.16493        3.05039
H          2.89848        0.22734        2.53172
H          1.45647       -0.35479        4.79656
H          2.44701        1.79611        4.16897
H          4.07216        1.21371        4.52614
H          3.26612        2.60670        6.36728
H          1.79928        1.63760        6.52356
H          4.67164        0.68875        6.98874
H          3.43719        0.93692        8.22203
H          3.71393       -1.42650        7.61935
H          2.06167       -0.86466        7.32395
H          3.39829       -3.11173        4.52521
H          3.02898       -4.68276        6.35078
H          2.68260       -3.36585        7.53729
H          0.76855       -2.56933        6.13829
H          1.07022       -3.93284        4.97671

--Link1--
%chk=JID_5939.chk
%mem=8GB
%nprocshared=4
# B3LYP/6-311++G(d,p) empiricaldispersion=gd3bj scf=xqc pop=npa geom=check

CID_69586671_JID_5939_Energie_neutraal

0 1

--Link1--
%chk=JID_5939.chk
%mem=8GB
%nprocshared=4
# B3LYP/6-311++G(d,p) empiricaldispersion=gd3bj scf=xqc pop=npa geom=check

CID_69586671_JID_5939_Energie_kation

1 2

--Link1--
%chk=JID_5939.chk
%mem=8GB
%nprocshared=4
# B3LYP/6-311++G(d,p) empiricaldispersion=gd3bj scf=xqc pop=npa geom=check

CID_69586671_JID_5939_Energie_anion

-1 2
