%chk=JID_3262.chk
%mem=8GB
%nprocshared=4
# opt freq B3LYP/6-31G(d) empiricaldispersion=gd3bj scf=xqc

CID_131253582_JID_3262_neutraal

0 1
C          0.95423       -0.06771       -0.05762
C         -0.34834       -0.47466       -0.74967
C         -1.00394        0.66041       -1.56419
C         -0.45972        0.90117       -2.99649
C         -0.28657       -0.44318       -3.74068
C          0.48732       -1.48627       -2.93432
C         -0.17535       -1.72429       -1.59940
C         -0.60154       -2.91468       -1.13411
C         -0.54382       -4.22157       -1.83908
O         -0.06952       -5.19332       -1.25338
C         -1.16129       -4.34713       -3.20635
C          0.86520        1.68541       -2.97637
C         -1.48274        1.76370       -3.76741
H          1.24295       -0.82637        0.67937
H          0.83199        0.87952        0.47801
H          1.79426        0.03622       -0.74679
H         -1.05378       -0.69388        0.06544
H         -2.07066        0.40434       -1.65052
H         -0.97644        1.59480       -0.98837
H          0.22183       -0.27970       -4.69942
H         -1.27503       -0.85634       -3.98470
H          1.51890       -1.15441       -2.77292
H          0.57183       -2.40076       -3.52625
H         -0.99801       -3.00487       -0.12595
H         -1.70950       -3.44265       -3.48220
H         -0.37951       -4.53976       -3.94497
H         -1.87354       -5.17727       -3.19785
H          1.16500        1.97046       -3.99187
H          0.76847        2.60746       -2.39221
H          1.69303        1.11188       -2.55812
H         -2.45742        1.26656       -3.82968
H         -1.63385        2.73114       -3.27515
H         -1.14607        1.95746       -4.79223

--Link1--
%chk=JID_3262.chk
%mem=8GB
%nprocshared=4
# B3LYP/6-311++G(d,p) empiricaldispersion=gd3bj scf=xqc pop=npa geom=check

CID_131253582_JID_3262_Energie_neutraal

0 1

--Link1--
%chk=JID_3262.chk
%mem=8GB
%nprocshared=4
# B3LYP/6-311++G(d,p) empiricaldispersion=gd3bj scf=xqc pop=npa geom=check

CID_131253582_JID_3262_Energie_kation

1 2

--Link1--
%chk=JID_3262.chk
%mem=8GB
%nprocshared=4
# B3LYP/6-311++G(d,p) empiricaldispersion=gd3bj scf=xqc pop=npa geom=check

CID_131253582_JID_3262_Energie_anion

-1 2
