%chk=JID_3619.chk
%mem=8GB
%nprocshared=4
# opt freq B3LYP/6-31G(d) empiricaldispersion=gd3bj scf=xqc

CID_129016982_JID_3619_neutraal

0 1
C          1.02817        0.07494       -0.05992
C          0.50769       -0.60614       -1.31708
C          0.94812       -2.04220       -1.37155
C          0.20255       -3.16238       -1.43463
C         -1.31180       -3.13755       -1.43431
N          0.73342       -4.44300       -1.49849
C          2.11681       -4.87730       -1.65865
C          2.50118       -5.78007       -0.46803
C          1.74621       -7.10021       -0.37060
C          2.29238       -5.58394       -3.01492
C          2.10708       -4.67808       -4.24065
C          3.13256       -3.58490       -4.35035
C          4.10293       -3.54984       -5.27193
H          0.63483       -0.40651        0.84182
H          0.72023        1.12541       -0.04460
H          2.12217        0.04492       -0.01402
H         -0.57649       -0.48735       -1.36135
H          0.91144       -0.08988       -2.19607
H          2.02967       -2.13902       -1.36387
H         -1.69040       -3.55477       -2.37413
H         -1.69450       -3.75042       -0.61020
H         -1.74676       -2.14424       -1.31869
H          0.04010       -5.18208       -1.58945
H          2.80579       -4.02920       -1.61890
H          3.57442       -6.00098       -0.52387
H          2.34591       -5.22411        0.46556
H          1.94540       -7.74184       -1.23365
H          2.06643       -7.64499        0.52380
H          0.66640       -6.94383       -0.29357
H          3.29062       -6.03872       -3.05806
H          1.56888       -6.40437       -3.10238
H          2.14449       -5.30948       -5.13776
H          1.10878       -4.22578       -4.23460
H          3.04722       -2.75899       -3.64764
H          4.80147       -2.71942       -5.30909
H          4.22118       -4.33864       -6.00792

--Link1--
%chk=JID_3619.chk
%mem=8GB
%nprocshared=4
# B3LYP/6-311++G(d,p) empiricaldispersion=gd3bj scf=xqc pop=npa geom=check

CID_129016982_JID_3619_Energie_neutraal

0 1

--Link1--
%chk=JID_3619.chk
%mem=8GB
%nprocshared=4
# B3LYP/6-311++G(d,p) empiricaldispersion=gd3bj scf=xqc pop=npa geom=check

CID_129016982_JID_3619_Energie_kation

1 2

--Link1--
%chk=JID_3619.chk
%mem=8GB
%nprocshared=4
# B3LYP/6-311++G(d,p) empiricaldispersion=gd3bj scf=xqc pop=npa geom=check

CID_129016982_JID_3619_Energie_anion

-1 2
