%chk=JID_6147.chk
%mem=8GB
%nprocshared=4
# opt freq B3LYP/6-31G(d) empiricaldispersion=gd3bj scf=xqc

CID_102272953_JID_6147_neutraal

0 1
C          0.93770       -0.04736        0.06226
O          0.36490        0.57720       -1.08226
C          0.78381        1.85834       -1.33948
C          2.09069        2.35593       -1.18995
C          2.33914        3.69479       -1.51192
C          1.30919        4.51374       -2.00046
C          0.01831        4.01410       -2.18309
C         -0.23131        2.67969       -1.85432
C         -1.05988        4.85445       -2.70524
C         -0.86979        6.13830       -3.02720
C          0.45206        6.77996       -2.87081
O          0.61294        7.95584       -3.16163
C          1.59554        5.92424       -2.33664
O          2.71494        6.39512       -2.19102
O          3.05570        1.48792       -0.75631
C          4.39981        1.95150       -0.70557
H          0.22377       -0.79560        0.42091
H          1.11259        0.65838        0.88193
H          1.85463       -0.57757       -0.21071
H          3.32853        4.13015       -1.40060
H         -1.22493        2.25401       -1.98430
H         -2.04253        4.40644       -2.83017
H         -1.66524        6.76467       -3.41345
H          4.74763        2.26827       -1.69433
H          4.51119        2.75299        0.03184
H          5.02849        1.11540       -0.38442

--Link1--
%chk=JID_6147.chk
%mem=8GB
%nprocshared=4
# B3LYP/6-311++G(d,p) empiricaldispersion=gd3bj scf=xqc pop=npa geom=check

CID_102272953_JID_6147_Energie_neutraal

0 1

--Link1--
%chk=JID_6147.chk
%mem=8GB
%nprocshared=4
# B3LYP/6-311++G(d,p) empiricaldispersion=gd3bj scf=xqc pop=npa geom=check

CID_102272953_JID_6147_Energie_kation

1 2

--Link1--
%chk=JID_6147.chk
%mem=8GB
%nprocshared=4
# B3LYP/6-311++G(d,p) empiricaldispersion=gd3bj scf=xqc pop=npa geom=check

CID_102272953_JID_6147_Energie_anion

-1 2
