%chk=JID_9992.chk
%mem=8GB
%nprocshared=4
# opt freq B3LYP/6-31G(d) empiricaldispersion=gd3bj scf=xqc

CID_136838579_JID_9992_neutraal

0 1
C          1.03723        0.08737       -0.03132
C          0.78729       -1.32980       -0.54776
C          1.51744       -2.33962        0.34216
C         -0.71349       -1.68105       -0.60807
C         -1.56406       -0.78906       -1.52071
C         -1.15078       -0.83640       -2.95366
N         -0.54793        0.22031       -3.51835
N         -0.29307       -0.19837       -4.77421
C          0.39245        0.63789       -5.75260
C          0.08032        0.15239       -7.17873
C          0.19984       -1.36892       -7.27483
N         -0.64923       -2.00531       -6.27607
C         -0.76652       -1.45730       -5.04409
C         -1.31946       -1.90538       -3.87272
C          1.88717        0.73261       -5.52313
N          2.62506        1.68623       -6.06840
C          3.94775        1.53770       -5.70408
C          4.22459        0.45210       -4.90617
S          2.78543       -0.41784       -4.59677
H          0.57937        0.23774        0.95216
H          0.63247        0.83956       -0.71467
H          2.11114        0.28180        0.06318
H          1.21712       -1.40960       -1.55333
H          1.14349       -2.30674        1.37120
H          1.38390       -3.35893       -0.03541
H          2.59255       -2.13204        0.36542
H         -0.81873       -2.72411       -0.93523
H         -1.13531       -1.63384        0.40449
H         -2.60830       -1.12077       -1.45324
H         -1.55680        0.24411       -1.15418
H         -0.02589        1.64632       -5.63255
H          0.73145        0.63082       -7.91957
H         -0.95079        0.43679       -7.43019
H         -0.11610       -1.69785       -8.27070
H          1.23720       -1.69452       -7.14079
H         -0.81623       -3.00202       -6.40424
H         -1.78776       -2.86168       -3.69473
H          4.67803        2.25693       -6.05454
H          5.17601        0.13711       -4.50318

--Link1--
%chk=JID_9992.chk
%mem=8GB
%nprocshared=4
# B3LYP/6-311++G(d,p) empiricaldispersion=gd3bj scf=xqc pop=npa geom=check

CID_136838579_JID_9992_Energie_neutraal

0 1

--Link1--
%chk=JID_9992.chk
%mem=8GB
%nprocshared=4
# B3LYP/6-311++G(d,p) empiricaldispersion=gd3bj scf=xqc pop=npa geom=check

CID_136838579_JID_9992_Energie_kation

1 2

--Link1--
%chk=JID_9992.chk
%mem=8GB
%nprocshared=4
# B3LYP/6-311++G(d,p) empiricaldispersion=gd3bj scf=xqc pop=npa geom=check

CID_136838579_JID_9992_Energie_anion

-1 2
