%chk=JID_8459.chk
%mem=8GB
%nprocshared=4
# opt freq B3LYP/6-31G(d) empiricaldispersion=gd3bj scf=xqc

CID_57448392_JID_8459_neutraal

0 1
C          1.34400       -0.22500        0.03600
C          0.61347        0.95559       -0.11011
C         -0.69169        0.90523       -0.59543
C         -1.26043       -0.31188       -0.97305
C         -0.52916       -1.49164       -0.82536
C          0.78147       -1.45753       -0.32693
C          1.55743       -2.73406       -0.13942
O          1.31885       -3.28043        1.15031
O         -1.36523        2.08898       -0.76153
C         -2.51973        2.32641       -0.12706
N         -3.36780        3.19087       -0.63638
C         -4.47963        3.31327        0.18364
C         -4.44908        2.54067        1.34507
S         -2.97719        1.65144        1.38706
C         -5.49659        2.55880        2.26996
C         -6.55796        3.38931        1.95344
N         -6.62996        4.15266        0.84393
C         -5.60126        4.12312       -0.04097
H          2.35732       -0.17889        0.43063
H          1.06066        1.90896        0.15842
H         -2.26473       -0.34829       -1.38681
H         -0.98381       -2.43925       -1.10846
H          1.27212       -3.47692       -0.89175
H          2.63228       -2.55585       -0.24960
H          0.71898       -2.67964        1.62436
H         -5.48246        1.96471        3.17478
H         -7.41678        3.46495        2.61647
H         -5.69325        4.75012       -0.91979

--Link1--
%chk=JID_8459.chk
%mem=8GB
%nprocshared=4
# B3LYP/6-311++G(d,p) empiricaldispersion=gd3bj scf=xqc pop=npa geom=check

CID_57448392_JID_8459_Energie_neutraal

0 1

--Link1--
%chk=JID_8459.chk
%mem=8GB
%nprocshared=4
# B3LYP/6-311++G(d,p) empiricaldispersion=gd3bj scf=xqc pop=npa geom=check

CID_57448392_JID_8459_Energie_kation

1 2

--Link1--
%chk=JID_8459.chk
%mem=8GB
%nprocshared=4
# B3LYP/6-311++G(d,p) empiricaldispersion=gd3bj scf=xqc pop=npa geom=check

CID_57448392_JID_8459_Energie_anion

-1 2
