%chk=JID_5891.chk
%mem=8GB
%nprocshared=4
# opt freq B3LYP/6-31G(d) empiricaldispersion=gd3bj scf=xqc

CID_143378485_JID_5891_neutraal

0 1
C          1.05311       -0.05921       -0.06061
C          0.33397       -0.96252        0.93064
C          0.93175       -0.92375        2.34032
N          0.74154        0.38398        2.96572
C          1.21964        0.40607        4.35531
C          2.75714        0.46234        4.53994
C          3.35396        1.75605        3.97191
C          3.09595        0.36743        6.01021
C          3.76960       -0.57026        6.69438
C          4.36103       -1.83956        6.27778
C          5.48106       -2.32381        6.86192
C          6.30612       -1.68209        7.86437
C          7.35904       -2.28282        8.43174
C          3.66970       -2.70876        5.23996
N          2.25597       -2.93064        5.52442
H          0.93903        0.99728        0.19954
H          0.63913       -0.19953       -1.06436
H          2.12185       -0.29254       -0.10004
H         -0.72887       -0.69371        0.96444
H          0.38517       -1.99393        0.56124
H          0.43112       -1.69391        2.93917
H          1.99455       -1.18333        2.28562
H          1.20884        1.10722        2.42446
H          0.77803        1.29434        4.82616
H          0.79787       -0.44811        4.89996
H          3.22096       -0.35636        3.99206
H          2.88184        2.64318        4.40895
H          4.42944        1.81313        4.17605
H          3.22846        1.80701        2.88567
H          2.74202        1.21801        6.59608
H          3.89326       -0.36012        7.75820
H          5.84491       -3.30146        6.54460
H          6.07333       -0.66259        8.16000
H          7.95466       -1.76084        9.17462
H          7.65496       -3.29656        8.18155
H          3.79034       -2.28567        4.23976
H          4.14655       -3.69604        5.19084
H          1.89210       -3.63705        4.88949
H          2.16772       -3.31306        6.46423

--Link1--
%chk=JID_5891.chk
%mem=8GB
%nprocshared=4
# B3LYP/6-311++G(d,p) empiricaldispersion=gd3bj scf=xqc pop=npa geom=check

CID_143378485_JID_5891_Energie_neutraal

0 1

--Link1--
%chk=JID_5891.chk
%mem=8GB
%nprocshared=4
# B3LYP/6-311++G(d,p) empiricaldispersion=gd3bj scf=xqc pop=npa geom=check

CID_143378485_JID_5891_Energie_kation

1 2

--Link1--
%chk=JID_5891.chk
%mem=8GB
%nprocshared=4
# B3LYP/6-311++G(d,p) empiricaldispersion=gd3bj scf=xqc pop=npa geom=check

CID_143378485_JID_5891_Energie_anion

-1 2
