%chk=JID_5316.chk
%mem=8GB
%nprocshared=4
# opt freq B3LYP/6-31G(d) empiricaldispersion=gd3bj scf=xqc

CID_135043819_JID_5316_neutraal

0 1
C          1.08790        0.04676       -0.00928
C          0.22299        1.06660       -0.06207
C         -1.18576        1.02628        0.29876
C         -1.89824        2.16864        0.30329
C         -3.33818        2.27429        0.70952
C         -3.99087        0.95848        1.16222
C         -3.35318       -0.28552        0.54621
C         -1.82849       -0.28984        0.67174
O         -4.10571        3.00484       -0.25145
C         -4.34496        2.40445       -1.52003
C         -3.32358        2.84717       -2.55387
C         -2.50219        1.96838       -3.15006
N         -3.33912        4.15775       -2.97214
N         -2.91318        4.93812       -2.09523
N         -2.50981        5.67375       -1.32111
H          0.81467       -0.94741        0.32484
H          2.12400        0.19631       -0.29883
H          0.61004        2.02972       -0.39655
H         -1.42362        3.11374        0.04810
H         -3.34931        2.93024        1.59005
H         -5.06796        0.96519        0.95969
H         -3.87664        0.87588        2.25164
H         -3.76005       -1.18188        1.02951
H         -3.62219       -0.36714       -0.51194
H         -1.54689       -0.53982        1.70245
H         -1.45865       -1.09760        0.02885
H         -4.43094        1.31907       -1.45673
H         -5.32814        2.75941       -1.85239
H         -1.81285        2.28745       -3.92521
H         -2.49160        0.91936       -2.87474

--Link1--
%chk=JID_5316.chk
%mem=8GB
%nprocshared=4
# B3LYP/6-311++G(d,p) empiricaldispersion=gd3bj scf=xqc pop=npa geom=check

CID_135043819_JID_5316_Energie_neutraal

0 1

--Link1--
%chk=JID_5316.chk
%mem=8GB
%nprocshared=4
# B3LYP/6-311++G(d,p) empiricaldispersion=gd3bj scf=xqc pop=npa geom=check

CID_135043819_JID_5316_Energie_kation

1 2

--Link1--
%chk=JID_5316.chk
%mem=8GB
%nprocshared=4
# B3LYP/6-311++G(d,p) empiricaldispersion=gd3bj scf=xqc pop=npa geom=check

CID_135043819_JID_5316_Energie_anion

-1 2
