%chk=JID_6941.chk
%mem=8GB
%nprocshared=4
# opt freq B3LYP/6-31G(d) empiricaldispersion=gd3bj scf=xqc

CID_63574000_JID_6941_neutraal

0 1
C          1.05382        0.06436       -0.05441
C          1.04946       -0.66331        1.28434
C         -0.27369       -0.49686        2.07025
C         -1.45288       -1.14965        1.33217
N         -0.07790       -0.97235        3.46565
C         -0.02921       -2.43092        3.58647
C         -1.05402       -0.42243        4.41502
C         -0.84130        1.03948        4.66373
C          0.34032        1.77858        4.68725
O          0.04894        3.10047        4.90554
C         -1.29129        3.21007        5.05030
C         -1.88662        1.98181        4.91728
C          1.73636        1.44499        4.47928
O          2.44495        2.00836        3.64179
N          2.32818        0.48377        5.29781
N          1.76301       -0.06794        6.46594
H          0.33165       -0.37019       -0.75138
H          2.04357       -0.00923       -0.51675
H          0.81956        1.12578        0.07390
H          1.26477       -1.72225        1.10114
H          1.88056       -0.26933        1.88246
H         -0.47290        0.58167        2.09581
H         -1.25676       -2.20170        1.10038
H         -2.37711       -1.09368        1.91516
H         -1.65044       -0.63500        0.38614
H          0.27256       -2.71534        4.60133
H         -0.99743       -2.90113        3.38299
H          0.71886       -2.87001        2.92000
H         -2.08221       -0.60738        4.08215
H         -0.95770       -0.91916        5.38937
H         -1.66228        4.20943        5.23151
H         -2.94845        1.78486        4.97425
H          3.32359        0.35844        5.12819
H          1.18326        0.63974        6.92503
H          1.13209       -0.81742        6.17571

--Link1--
%chk=JID_6941.chk
%mem=8GB
%nprocshared=4
# B3LYP/6-311++G(d,p) empiricaldispersion=gd3bj scf=xqc pop=npa geom=check

CID_63574000_JID_6941_Energie_neutraal

0 1

--Link1--
%chk=JID_6941.chk
%mem=8GB
%nprocshared=4
# B3LYP/6-311++G(d,p) empiricaldispersion=gd3bj scf=xqc pop=npa geom=check

CID_63574000_JID_6941_Energie_kation

1 2

--Link1--
%chk=JID_6941.chk
%mem=8GB
%nprocshared=4
# B3LYP/6-311++G(d,p) empiricaldispersion=gd3bj scf=xqc pop=npa geom=check

CID_63574000_JID_6941_Energie_anion

-1 2
