%chk=JID_709.chk
%mem=8GB
%nprocshared=4
# opt freq B3LYP/6-31G(d) empiricaldispersion=gd3bj scf=xqc

CID_11367064_JID_709_neutraal

0 1
C          1.09728        0.01925        0.01293
C          0.59952        0.31970       -1.40622
C          1.28660       -0.58616       -2.45321
C          1.10514       -2.10022       -2.28405
N         -0.27418       -2.53443       -2.48512
N         -0.87167        0.19182       -1.45413
C         -1.53687        1.41780       -1.92078
C         -1.36821        1.71846       -3.41385
C         -1.93517        0.65920       -4.36069
N         -3.38502        0.52453       -4.24823
H          0.78190       -0.96980        0.36148
H          0.70770        0.75876        0.72189
H          2.19074        0.06245        0.05746
H          0.90287        1.35214       -1.62453
H          0.95722       -0.29578       -3.45895
H          2.36439       -0.37689       -2.42519
H          1.73955       -2.62067       -3.01031
H          1.44185       -2.42060       -1.29354
H         -0.51402       -2.41811       -3.46889
H         -0.87587       -1.84904       -2.00886
H         -1.21692        0.00677       -0.50936
H         -2.60549        1.32316       -1.69590
H         -1.18895        2.27603       -1.33201
H         -1.85325        2.68024       -3.62677
H         -0.30641        1.86361       -3.64595
H         -1.69825        0.95072       -5.39001
H         -1.46364       -0.31251       -4.18875
H         -3.70981       -0.14862       -4.94222
H         -3.60924        0.10853       -3.34393

--Link1--
%chk=JID_709.chk
%mem=8GB
%nprocshared=4
# B3LYP/6-311++G(d,p) empiricaldispersion=gd3bj scf=xqc pop=npa geom=check

CID_11367064_JID_709_Energie_neutraal

0 1

--Link1--
%chk=JID_709.chk
%mem=8GB
%nprocshared=4
# B3LYP/6-311++G(d,p) empiricaldispersion=gd3bj scf=xqc pop=npa geom=check

CID_11367064_JID_709_Energie_kation

1 2

--Link1--
%chk=JID_709.chk
%mem=8GB
%nprocshared=4
# B3LYP/6-311++G(d,p) empiricaldispersion=gd3bj scf=xqc pop=npa geom=check

CID_11367064_JID_709_Energie_anion

-1 2
