%chk=JID_5084.chk
%mem=8GB
%nprocshared=4
# opt freq B3LYP/6-31G(d) empiricaldispersion=gd3bj scf=xqc

CID_115550945_JID_5084_neutraal

0 1
C          2.54100       -1.13900        0.05100
C          1.20222       -0.49551       -0.15368
C          0.02142       -1.16723       -0.51434
C         -1.19976       -0.44172       -0.58923
C         -1.21296        0.94386       -0.41457
C         -0.04545        1.61317       -0.07761
C          1.14347        0.89979        0.05595
N         -2.37598       -1.07677       -1.05782
O         -0.16654       -2.50423       -0.76365
C          0.87161       -3.37542       -1.20383
C          1.30274       -3.07177       -2.60786
C          0.68908       -2.31531       -3.58812
C          1.43335       -2.28590       -4.80293
C          2.58424       -3.03655       -4.72105
S          2.76298       -3.76993       -3.18916
H          2.47155       -1.94407        0.78809
H          2.95086       -1.50301       -0.89288
H          3.27299       -0.42838        0.45272
H         -2.13321        1.50536       -0.54542
H         -0.05688        2.68888        0.07441
H          2.04314        1.45014        0.32822
H         -2.30800       -2.08249       -0.90777
H         -3.22374       -0.67668       -0.67144
H          1.69149       -3.42998       -0.48719
H          0.43007       -4.38030       -1.20912
H         -0.25067       -1.79429       -3.43738
H          1.13675       -1.74303       -5.69129
H          3.32879       -3.19312       -5.48895

--Link1--
%chk=JID_5084.chk
%mem=8GB
%nprocshared=4
# B3LYP/6-311++G(d,p) empiricaldispersion=gd3bj scf=xqc pop=npa geom=check

CID_115550945_JID_5084_Energie_neutraal

0 1

--Link1--
%chk=JID_5084.chk
%mem=8GB
%nprocshared=4
# B3LYP/6-311++G(d,p) empiricaldispersion=gd3bj scf=xqc pop=npa geom=check

CID_115550945_JID_5084_Energie_kation

1 2

--Link1--
%chk=JID_5084.chk
%mem=8GB
%nprocshared=4
# B3LYP/6-311++G(d,p) empiricaldispersion=gd3bj scf=xqc pop=npa geom=check

CID_115550945_JID_5084_Energie_anion

-1 2
