%chk=JID_1079.chk
%mem=8GB
%nprocshared=4
# opt freq B3LYP/6-31G(d) empiricaldispersion=gd3bj scf=xqc

CID_131181597_JID_1079_neutraal

0 1
C          0.91425        0.03319       -0.03931
C          0.40758       -0.72483        1.17687
C         -0.02704       -1.37507        2.22011
C         -0.53371       -2.13309        3.43628
N          0.46698       -2.06413        4.51252
C         -0.20698       -1.92969        5.80998
C          1.39357       -3.22248        4.52255
C          2.22656       -3.63059        3.33810
C          2.88939       -2.96478        4.51205
C          3.48602       -1.60812        4.32384
O          3.06047       -0.75770        5.37672
H          0.65299        1.09168        0.04520
H          0.46182       -0.37374       -0.94788
H          2.00148       -0.06040       -0.11042
H         -1.47239       -1.64511        3.72964
H         -0.78127       -3.16704        3.16820
H         -0.87950       -2.77127        6.01181
H          0.52702       -1.87693        6.62197
H         -0.78557       -0.99999        5.84918
H          1.05315       -4.06057        5.13237
H          2.40977       -4.68944        3.19178
H          2.14209       -3.07966        2.41028
H          3.48644       -3.56717        5.18647
H          4.57840       -1.66876        4.34953
H          3.19944       -1.14923        3.37158
H          2.08995       -0.71952        5.26399

--Link1--
%chk=JID_1079.chk
%mem=8GB
%nprocshared=4
# B3LYP/6-311++G(d,p) empiricaldispersion=gd3bj scf=xqc pop=npa geom=check

CID_131181597_JID_1079_Energie_neutraal

0 1

--Link1--
%chk=JID_1079.chk
%mem=8GB
%nprocshared=4
# B3LYP/6-311++G(d,p) empiricaldispersion=gd3bj scf=xqc pop=npa geom=check

CID_131181597_JID_1079_Energie_kation

1 2

--Link1--
%chk=JID_1079.chk
%mem=8GB
%nprocshared=4
# B3LYP/6-311++G(d,p) empiricaldispersion=gd3bj scf=xqc pop=npa geom=check

CID_131181597_JID_1079_Energie_anion

-1 2
