%chk=JID_4359.chk
%mem=8GB
%nprocshared=4
# opt freq B3LYP/6-31G(d) empiricaldispersion=gd3bj scf=xqc

CID_84772324_JID_4359_neutraal

0 1
C          0.93870        0.00622        0.07876
C          0.16185        0.25388        1.37010
C          0.31456        1.70058        1.93306
C          0.25951        2.82896        0.94803
C          1.22264        3.81625        0.82787
O          0.90127        4.70803       -0.13866
C         -0.29331        4.31798       -0.65532
C         -0.74322        3.16490       -0.02157
C         -1.96855        2.64418       -0.44683
N         -2.66790        3.25623       -1.43959
C         -2.16841        4.37544       -2.01298
C         -0.97169        4.97411       -1.66861
O         -0.65506        1.89641        2.97112
N         -1.25065       -0.15794        1.21452
H          0.51344        0.54943       -0.77107
H          0.93224       -1.05924       -0.17800
H          1.98470        0.31049        0.19174
H          0.57388       -0.42140        2.13240
H          1.29171        1.74146        2.43273
H          2.15267        4.01182        1.34446
H         -2.42249        1.75227       -0.03374
H         -2.79002        4.79956       -2.79766
H         -0.59548        5.86978       -2.13965
H         -1.51606        1.81837        2.52118
H         -1.28165       -1.08106        0.77782
H         -1.64339       -0.29509        2.14928

--Link1--
%chk=JID_4359.chk
%mem=8GB
%nprocshared=4
# B3LYP/6-311++G(d,p) empiricaldispersion=gd3bj scf=xqc pop=npa geom=check

CID_84772324_JID_4359_Energie_neutraal

0 1

--Link1--
%chk=JID_4359.chk
%mem=8GB
%nprocshared=4
# B3LYP/6-311++G(d,p) empiricaldispersion=gd3bj scf=xqc pop=npa geom=check

CID_84772324_JID_4359_Energie_kation

1 2

--Link1--
%chk=JID_4359.chk
%mem=8GB
%nprocshared=4
# B3LYP/6-311++G(d,p) empiricaldispersion=gd3bj scf=xqc pop=npa geom=check

CID_84772324_JID_4359_Energie_anion

-1 2
