%chk=JID_2174.chk
%mem=8GB
%nprocshared=4
# opt freq B3LYP/6-31G(d) empiricaldispersion=gd3bj scf=xqc

CID_65099948_JID_2174_neutraal

0 1
C          1.09724        0.00148       -0.02329
C          0.95458        0.05118       -1.54850
C          1.94006        1.07344       -2.17736
N          3.33413        0.57046       -2.19299
C          3.45304       -0.78896       -2.76256
C          2.44861       -1.76733       -2.11741
N          1.04880       -1.30208       -2.14426
C          4.35917        1.47223       -2.35094
C          5.49933        1.26454       -3.10164
S          6.57298        2.59853       -3.07353
C          5.54258        3.46653       -2.02605
C          4.40472        2.75315       -1.71593
H          0.39935       -0.72318        0.41045
H          0.86590        0.98020        0.41151
H          2.10943       -0.26762        0.29450
H         -0.06177        0.41157       -1.75282
H          1.63414        1.27586       -3.21256
H          1.85061        2.01661       -1.62795
H          4.45722       -1.19517       -2.59161
H          3.28338       -0.74650       -3.84602
H          2.74600       -1.97457       -1.08292
H          2.50168       -2.72726       -2.64384
H          0.76743       -1.22922       -3.12248
H          5.76944        0.40158       -3.69095
H          5.82037        4.45202       -1.67921
H          3.65265        3.14066       -1.04226

--Link1--
%chk=JID_2174.chk
%mem=8GB
%nprocshared=4
# B3LYP/6-311++G(d,p) empiricaldispersion=gd3bj scf=xqc pop=npa geom=check

CID_65099948_JID_2174_Energie_neutraal

0 1

--Link1--
%chk=JID_2174.chk
%mem=8GB
%nprocshared=4
# B3LYP/6-311++G(d,p) empiricaldispersion=gd3bj scf=xqc pop=npa geom=check

CID_65099948_JID_2174_Energie_kation

1 2

--Link1--
%chk=JID_2174.chk
%mem=8GB
%nprocshared=4
# B3LYP/6-311++G(d,p) empiricaldispersion=gd3bj scf=xqc pop=npa geom=check

CID_65099948_JID_2174_Energie_anion

-1 2
