%chk=JID_5319.chk
%mem=8GB
%nprocshared=4
# opt freq B3LYP/6-31G(d) empiricaldispersion=gd3bj scf=xqc

CID_145221790_JID_5319_neutraal

0 1
C          1.08342       -0.04309       -0.03441
C          0.40322       -1.09708        0.49200
C         -1.04063       -0.97958        0.69161
C         -1.89526       -1.77325        1.35989
C         -1.63415       -3.03804        2.02050
C         -1.76293       -4.15282        1.28321
N         -1.31079       -3.03396        3.36401
C         -0.66130       -4.09117        4.10939
C         -0.05500       -3.02230        4.95750
C         -0.72945       -1.96993        4.14627
C         -0.21453       -3.05898        6.44680
N          1.20128       -3.50116        6.52984
C          1.43429       -3.00259        5.14786
C          1.16322       -2.27473        1.08017
N          1.79371       -3.25169        1.56811
H          0.58325        0.85109       -0.39171
H          2.16662       -0.06877       -0.11970
H         -1.48052       -0.07241        0.27470
H         -2.93446       -1.45488        1.44348
H         -1.60128       -5.13491        1.71359
H         -2.03191       -4.12006        0.23274
H         -1.39047       -4.74847        4.59143
H          0.04114       -4.67878        3.51125
H         -0.05976       -1.31450        3.58443
H         -1.49606       -1.37844        4.65477
H         -0.38699       -2.08291        6.91504
H         -0.93359       -3.77648        6.85126
H          1.75874       -3.04162        7.24801
H          2.02753       -3.67806        4.52538
H          1.89006       -2.00599        5.11972

--Link1--
%chk=JID_5319.chk
%mem=8GB
%nprocshared=4
# B3LYP/6-311++G(d,p) empiricaldispersion=gd3bj scf=xqc pop=npa geom=check

CID_145221790_JID_5319_Energie_neutraal

0 1

--Link1--
%chk=JID_5319.chk
%mem=8GB
%nprocshared=4
# B3LYP/6-311++G(d,p) empiricaldispersion=gd3bj scf=xqc pop=npa geom=check

CID_145221790_JID_5319_Energie_kation

1 2

--Link1--
%chk=JID_5319.chk
%mem=8GB
%nprocshared=4
# B3LYP/6-311++G(d,p) empiricaldispersion=gd3bj scf=xqc pop=npa geom=check

CID_145221790_JID_5319_Energie_anion

-1 2
