%chk=JID_9427.chk
%mem=8GB
%nprocshared=4
# opt freq B3LYP/6-31G(d) empiricaldispersion=gd3bj scf=xqc

CID_113542466_JID_9427_neutraal

0 1
C          1.86400        1.49500        0.03800
C          0.57427        0.80658        0.39883
C         -0.65661        1.49169        0.36569
C         -1.85657        0.86283        0.71920
C         -1.83598       -0.45658        1.15177
C         -0.62466       -1.14585        1.20419
C          0.57417       -0.55061        0.77988
N          1.77262       -1.26282        0.96590
C         -0.74220        2.91107       -0.04082
O         -0.79103        3.16328       -1.24412
C         -0.92308        3.96791        1.02883
C         -0.15409        3.69887        2.27732
N          1.09943        4.15087        2.41439
N          1.47829        3.71793        3.63281
C          0.49926        3.02129        4.28130
C         -0.57982        2.99926        3.43167
C          2.80308        4.03766        4.15475
C          3.91472        3.67055        3.17166
C          2.88725        5.50654        4.56619
H          2.56016        1.45505        0.88225
H          2.31893        1.00623       -0.82993
H          1.73526        2.54932       -0.21934
H         -2.80068        1.39868        0.66589
H         -2.75580       -0.94958        1.45455
H         -0.62109       -2.16860        1.57419
H          1.65436       -2.27060        0.92892
H          2.53014       -0.95395        0.36517
H         -0.59878        4.92713        0.60647
H         -1.99331        4.05220        1.24861
H          0.64705        2.61110        5.27014
H         -1.53651        2.53034        3.61282
H          2.93375        3.42155        5.05365
H          3.86275        4.27281        2.25784
H          4.89876        3.83329        3.62405
H          3.84698        2.61669        2.88093
H          2.10520        5.75395        5.29272
H          3.85611        5.72566        5.02708
H          2.76238        6.17318        3.70576

--Link1--
%chk=JID_9427.chk
%mem=8GB
%nprocshared=4
# B3LYP/6-311++G(d,p) empiricaldispersion=gd3bj scf=xqc pop=npa geom=check

CID_113542466_JID_9427_Energie_neutraal

0 1

--Link1--
%chk=JID_9427.chk
%mem=8GB
%nprocshared=4
# B3LYP/6-311++G(d,p) empiricaldispersion=gd3bj scf=xqc pop=npa geom=check

CID_113542466_JID_9427_Energie_kation

1 2

--Link1--
%chk=JID_9427.chk
%mem=8GB
%nprocshared=4
# B3LYP/6-311++G(d,p) empiricaldispersion=gd3bj scf=xqc pop=npa geom=check

CID_113542466_JID_9427_Energie_anion

-1 2
