%chk=JID_6742.chk
%mem=8GB
%nprocshared=4
# opt freq B3LYP/6-31G(d) empiricaldispersion=gd3bj scf=xqc

CID_4059531_JID_6742_neutraal

0 1
C          1.06084        0.05012        0.06154
C          0.39321       -0.34391        1.37097
C          0.84148        0.49547        2.57106
C          0.66197        2.01049        2.42757
C         -0.77337        2.48536        2.13587
C         -1.76712        2.14743        3.24788
O         -0.77104        3.86457        1.73281
C         -0.55344        4.77704        2.67858
N         -1.43755        5.03614        3.61011
C         -1.00223        6.10149        4.37914
C         -1.69510        6.67497        5.46462
C         -1.13460        7.75368        6.15660
C          0.10625        8.26138        5.78435
C          0.81256        7.71319        4.70903
C          0.23514        6.63712        4.01458
S          0.82854        5.78178        2.64313
H          0.76071        1.05239       -0.25767
H          0.77437       -0.64889       -0.73081
H          2.15114        0.02773        0.15510
H         -0.69488       -0.29085        1.25577
H          0.62785       -1.39482        1.58007
H          0.30770        0.14599        3.46276
H          1.90419        0.29566        2.75936
H          1.01910        2.48411        3.35135
H          1.33039        2.38433        1.64164
H         -1.12559        1.96215        1.24000
H         -1.41749        2.50445        4.22233
H         -2.73969        2.61130        3.05369
H         -1.91507        1.06608        3.32872
H         -2.66381        6.27683        5.75017
H         -1.67564        8.19689        6.98945
H          0.53152        9.09981        6.33242
H          1.77724        8.11524        4.41480

--Link1--
%chk=JID_6742.chk
%mem=8GB
%nprocshared=4
# B3LYP/6-311++G(d,p) empiricaldispersion=gd3bj scf=xqc pop=npa geom=check

CID_4059531_JID_6742_Energie_neutraal

0 1

--Link1--
%chk=JID_6742.chk
%mem=8GB
%nprocshared=4
# B3LYP/6-311++G(d,p) empiricaldispersion=gd3bj scf=xqc pop=npa geom=check

CID_4059531_JID_6742_Energie_kation

1 2

--Link1--
%chk=JID_6742.chk
%mem=8GB
%nprocshared=4
# B3LYP/6-311++G(d,p) empiricaldispersion=gd3bj scf=xqc pop=npa geom=check

CID_4059531_JID_6742_Energie_anion

-1 2
