%chk=JID_10078.chk
%mem=8GB
%nprocshared=4
# opt freq B3LYP/6-31G(d) empiricaldispersion=gd3bj scf=xqc

CID_112116917_JID_10078_neutraal

0 1
C          0.93845        0.01440       -0.07749
N          0.62986        0.86920        1.05859
C          0.13757        2.22298        0.74366
C         -1.39206        2.29600        0.55752
C         -1.97698        3.68414        0.46498
C         -1.27756        4.95379        0.89476
C         -1.48475        4.67077       -0.56719
O         -1.75120        1.61839       -0.65313
C          0.98728        0.42464        2.33604
O          1.63853       -0.61018        2.49335
C          0.59845        1.21592        3.51981
C          1.28135        1.11488        4.72112
S          0.58103        2.12791        5.90325
C         -0.62508        2.60081        4.77496
N         -0.50540        2.07291        3.57226
C         -1.74534        3.54369        5.12150
C         -2.74170        3.85301        4.21980
S         -3.88850        4.94820        4.86083
C         -3.06869        5.00959        6.36039
C         -1.94275        4.21368        6.36862
H          0.08087       -0.03660       -0.75095
H          1.18722       -1.00463        0.23069
H          1.79545        0.43836       -0.60945
H          0.47737        2.90268        1.52756
H          0.64444        2.54161       -0.17585
H         -1.88394        1.76191        1.37766
H         -3.05221        3.64864        0.61938
H         -1.88264        5.73211        1.34945
H         -0.26399        4.93041        1.27308
H         -0.62052        4.41142       -1.16801
H         -2.22560        5.25684       -1.09998
H         -2.72205        1.60736       -0.69145
H          2.14674        0.50386        4.93996
H         -2.85847        3.48326        3.21193
H         -3.45127        5.62466        7.16370
H         -1.29829        4.12789        7.23501

--Link1--
%chk=JID_10078.chk
%mem=8GB
%nprocshared=4
# B3LYP/6-311++G(d,p) empiricaldispersion=gd3bj scf=xqc pop=npa geom=check

CID_112116917_JID_10078_Energie_neutraal

0 1

--Link1--
%chk=JID_10078.chk
%mem=8GB
%nprocshared=4
# B3LYP/6-311++G(d,p) empiricaldispersion=gd3bj scf=xqc pop=npa geom=check

CID_112116917_JID_10078_Energie_kation

1 2

--Link1--
%chk=JID_10078.chk
%mem=8GB
%nprocshared=4
# B3LYP/6-311++G(d,p) empiricaldispersion=gd3bj scf=xqc pop=npa geom=check

CID_112116917_JID_10078_Energie_anion

-1 2
