%chk=JID_8130.chk
%mem=8GB
%nprocshared=4
# opt freq B3LYP/6-31G(d) empiricaldispersion=gd3bj scf=xqc

CID_116211613_JID_8130_neutraal

0 1
C          1.03727        0.08920        0.02556
N          0.23671        1.08993        0.71312
C         -1.17671        1.04352        0.33203
C         -1.89669       -0.12490        0.91241
C         -2.43185       -1.27049        0.36894
C         -3.02516       -1.97441        1.44200
C         -2.83164       -1.22921        2.60040
O         -2.11438       -0.10078        2.25722
S         -3.35799       -1.54787        4.28349
O         -2.80538       -0.49163        5.09865
O         -4.78054       -1.79382        4.19588
N         -2.66449       -3.00966        4.76069
C         -1.22545       -3.04310        5.04949
C         -0.91944       -2.77054        6.52182
C         -1.52898       -3.76262        7.52106
C         -1.11305       -5.22659        7.36762
S          0.63062       -5.52070        7.81113
C          1.34414       -5.72641        6.16256
H          0.97792        0.21096       -1.06085
H          0.73878       -0.93035        0.28850
H          2.08738        0.20921        0.31007
H          0.29845        0.95434        1.72286
H         -1.65589        1.95959        0.69745
H         -1.28340        1.06010       -0.75914
H         -2.40892       -1.55297       -0.67466
H         -3.55891       -2.91425        1.39873
H         -3.28144       -3.51068        5.39784
H         -0.85329       -4.02937        4.75616
H         -0.69424       -2.32286        4.41732
H          0.16846       -2.74344        6.65255
H         -1.27568       -1.76863        6.78810
H         -1.28809       -3.42246        8.53704
H         -2.62224       -3.70962        7.45208
H         -1.71035       -5.82461        8.06502
H         -1.33231       -5.60960        6.36680
H          0.83228       -6.52488        5.61926
H          1.28438       -4.79447        5.59690
H          2.39832       -5.99878        6.26236

--Link1--
%chk=JID_8130.chk
%mem=8GB
%nprocshared=4
# B3LYP/6-311++G(d,p) empiricaldispersion=gd3bj scf=xqc pop=npa geom=check

CID_116211613_JID_8130_Energie_neutraal

0 1

--Link1--
%chk=JID_8130.chk
%mem=8GB
%nprocshared=4
# B3LYP/6-311++G(d,p) empiricaldispersion=gd3bj scf=xqc pop=npa geom=check

CID_116211613_JID_8130_Energie_kation

1 2

--Link1--
%chk=JID_8130.chk
%mem=8GB
%nprocshared=4
# B3LYP/6-311++G(d,p) empiricaldispersion=gd3bj scf=xqc pop=npa geom=check

CID_116211613_JID_8130_Energie_anion

-1 2
