%chk=JID_6048.chk
%mem=8GB
%nprocshared=4
# opt freq B3LYP/6-31G(d) empiricaldispersion=gd3bj scf=xqc

CID_121872006_JID_6048_neutraal

0 1
C          1.04331        0.06449       -0.06297
C          1.68540        1.23191        0.66364
O          1.99591        2.28554       -0.24471
C          3.21706        2.09044       -0.98761
C          3.03998        1.66067       -2.41678
C          3.48980        3.05881       -2.11944
C          2.76181        4.35025       -2.17511
O          3.37980        5.36721       -1.86371
N          1.46886        4.48797       -2.59354
C          0.47771        3.48739       -2.91020
C         -0.89932        4.10340       -2.99305
C         -1.24436        4.90795       -4.23971
C         -1.85743        3.55479       -4.04403
C         -1.48618        4.54156       -1.69857
O         -1.45974        5.69006       -1.28850
O         -2.05278        3.53954       -1.00083
H          0.19133        0.40105       -0.66258
H          0.70006       -0.69174        0.64878
H          1.75357       -0.40742       -0.74889
H          0.97667        1.63679        1.39347
H          2.58053        0.91898        1.21203
H          4.09393        1.74731       -0.44577
H          3.77852        0.97504       -2.82138
H          2.04687        1.44082       -2.77043
H          4.54490        3.22611       -2.33675
H          1.16262        5.45317       -2.53733
H          0.77134        3.02484       -3.85876
H          0.46747        2.71846       -2.13709
H         -1.88112        5.77952       -4.12537
H         -0.48817        5.02080       -5.00865
H         -1.52322        2.74569       -4.68338
H         -2.91367        3.50542       -3.79936
H         -2.35617        3.97700       -0.17835

--Link1--
%chk=JID_6048.chk
%mem=8GB
%nprocshared=4
# B3LYP/6-311++G(d,p) empiricaldispersion=gd3bj scf=xqc pop=npa geom=check

CID_121872006_JID_6048_Energie_neutraal

0 1

--Link1--
%chk=JID_6048.chk
%mem=8GB
%nprocshared=4
# B3LYP/6-311++G(d,p) empiricaldispersion=gd3bj scf=xqc pop=npa geom=check

CID_121872006_JID_6048_Energie_kation

1 2

--Link1--
%chk=JID_6048.chk
%mem=8GB
%nprocshared=4
# B3LYP/6-311++G(d,p) empiricaldispersion=gd3bj scf=xqc pop=npa geom=check

CID_121872006_JID_6048_Energie_anion

-1 2
