%chk=JID_4082.chk
%mem=8GB
%nprocshared=4
# opt freq B3LYP/6-31G(d) empiricaldispersion=gd3bj scf=xqc

CID_131355562_JID_4082_neutraal

0 1
C         -2.38400        0.00700       -0.11600
N         -0.94024       -0.17139        0.03458
C         -0.43142       -1.13324       -0.94517
C          1.06571       -1.38778       -0.75566
C          1.92715       -0.10476       -0.76903
C          1.25533        0.95470        0.12792
C         -0.24810        1.11731       -0.06412
C          2.52198        0.31053       -2.18257
C          1.61924        0.12389       -3.43179
C          0.61281        1.22652       -3.74276
C          1.25508        2.59023       -3.93115
S          2.08909        3.13815       -2.42530
C          3.19871        1.71050       -2.17847
N          3.63279       -0.67494       -2.39471
H         -2.65009        0.41222       -1.09904
H         -2.90597       -0.94718        0.01665
H         -2.77094        0.68494        0.65290
H         -0.94906       -2.09218       -0.81597
H         -0.64306       -0.79993       -1.96572
H          1.41213       -2.11914       -1.49278
H          1.20122       -1.87418        0.22124
H          2.82445       -0.36649       -0.18138
H          1.75597        1.92312        0.07632
H          1.40654        0.63361        1.17036
H         -0.46528        1.62072       -1.00762
H         -0.61406        1.78247        0.72859
H          2.26169        0.05404       -4.32363
H          1.09738       -0.83850       -3.39963
H         -0.17096        1.26807       -2.98677
H          0.09919        0.96267       -4.67642
H          0.48844        3.32864       -4.18673
H          1.97722        2.57246       -4.75433
H          3.75785        1.86539       -1.24829
H          3.93712        1.77600       -2.98797
H          3.25669       -1.61838       -2.47849
H          4.11682       -0.48540       -3.27231

--Link1--
%chk=JID_4082.chk
%mem=8GB
%nprocshared=4
# B3LYP/6-311++G(d,p) empiricaldispersion=gd3bj scf=xqc pop=npa geom=check

CID_131355562_JID_4082_Energie_neutraal

0 1

--Link1--
%chk=JID_4082.chk
%mem=8GB
%nprocshared=4
# B3LYP/6-311++G(d,p) empiricaldispersion=gd3bj scf=xqc pop=npa geom=check

CID_131355562_JID_4082_Energie_kation

1 2

--Link1--
%chk=JID_4082.chk
%mem=8GB
%nprocshared=4
# B3LYP/6-311++G(d,p) empiricaldispersion=gd3bj scf=xqc pop=npa geom=check

CID_131355562_JID_4082_Energie_anion

-1 2
