%chk=JID_6869.chk
%mem=8GB
%nprocshared=4
# opt freq B3LYP/6-31G(d) empiricaldispersion=gd3bj scf=xqc

CID_82427655_JID_6869_neutraal

0 1
C         -2.55700       -0.42200       -0.01100
C         -1.08405       -0.22735        0.01376
C         -0.10914       -1.20669       -0.10716
S          1.44391       -0.46705       -0.03625
C          0.70826        1.07299        0.17410
N         -0.60496        1.05913        0.18927
C          1.56317        2.28855        0.38317
C          1.25875        3.43980       -0.59227
N          0.03057        4.19926       -0.33237
C         -0.18728        5.26623       -1.30849
C         -1.24131        6.14924       -0.65398
C         -1.19673        5.79921        0.82836
C         -0.01806        4.85087        0.97379
C         -0.27855       -2.69176       -0.27745
C          0.25800       -3.18641       -1.62092
N          0.34696       -3.41730        0.83022
H         -2.88025       -0.99525        0.86340
H         -3.08034        0.53938       -0.00008
H         -2.85995       -0.95983       -0.91479
H          1.47309        2.61498        1.42499
H          2.62000        2.02164        0.24957
H          2.11538        4.12722       -0.56995
H          1.21276        3.03158       -1.61058
H         -0.53246        4.87671       -2.27145
H          0.72533        5.85173       -1.47820
H         -1.02410        7.20971       -0.81967
H         -2.23875        5.94289       -1.05823
H         -1.08590        6.68801        1.45726
H         -2.12918        5.29853        1.11643
H          0.89901        5.41788        1.17702
H         -0.18737        4.14605        1.79329
H         -1.34859       -2.92880       -0.24582
H          1.34293       -3.05778       -1.70654
H          0.03963       -4.25169       -1.75757
H         -0.20769       -2.64267       -2.45061
H          0.30565       -4.41788        0.64903
H          1.33648       -3.17433        0.86261

--Link1--
%chk=JID_6869.chk
%mem=8GB
%nprocshared=4
# B3LYP/6-311++G(d,p) empiricaldispersion=gd3bj scf=xqc pop=npa geom=check

CID_82427655_JID_6869_Energie_neutraal

0 1

--Link1--
%chk=JID_6869.chk
%mem=8GB
%nprocshared=4
# B3LYP/6-311++G(d,p) empiricaldispersion=gd3bj scf=xqc pop=npa geom=check

CID_82427655_JID_6869_Energie_kation

1 2

--Link1--
%chk=JID_6869.chk
%mem=8GB
%nprocshared=4
# B3LYP/6-311++G(d,p) empiricaldispersion=gd3bj scf=xqc pop=npa geom=check

CID_82427655_JID_6869_Energie_anion

-1 2
