%chk=JID_5634.chk
%mem=8GB
%nprocshared=4
# opt freq B3LYP/6-31G(d) empiricaldispersion=gd3bj scf=xqc

CID_107893423_JID_5634_neutraal

0 1
C          1.06257        0.04543        0.06341
C          0.38405        0.33746       -1.26543
C          0.90245       -0.52290       -2.42413
C          0.69920       -2.05690       -2.27799
C         -0.80792       -2.37345       -2.30124
C          1.46863       -2.80699       -3.41435
C          2.98390       -2.81471       -3.29310
C          3.77115       -2.17416       -2.16700
C          3.83153       -3.67126       -2.33194
C          3.24440       -4.48606       -1.20707
C          5.11265       -4.25393       -2.87939
N          0.98939       -4.18238       -3.58683
C          0.96688       -4.66920       -4.96314
C          2.24451       -5.36055       -5.44683
C          2.53051       -6.67396       -4.73394
H          0.82109       -0.95719        0.42729
H          0.72574        0.76066        0.82084
H          2.15003        0.13316       -0.02213
H         -0.69993        0.23201       -1.15600
H          0.56191        1.39011       -1.51836
H          0.40305       -0.18651       -3.34271
H          1.96257       -0.28880       -2.56563
H          1.07782       -2.38275       -1.30641
H         -1.25732       -2.09018       -3.25908
H         -0.99581       -3.43936       -2.13622
H         -1.34098       -1.84468       -1.50589
H          1.23353       -2.24616       -4.32997
H          3.40289       -2.65652       -4.28675
H          3.27311       -1.79073       -1.28509
H          4.64140       -1.58410       -2.43836
H          2.30002       -4.08624       -0.83303
H          3.06992       -5.51786       -1.52657
H          3.94275       -4.51354       -0.36325
H          4.93418       -5.25468       -3.28459
H          5.53434       -3.63823       -3.68116
H          5.86459       -4.33259       -2.08718
H          1.47440       -4.82190       -2.96750
H          0.14421       -5.39143       -5.03449
H          0.70101       -3.86432       -5.65898
H          2.13284       -5.57282       -6.51739
H          3.10850       -4.69603       -5.35671
H          1.69268       -7.36967       -4.84488
H          3.42002       -7.14692       -5.16237
H          2.71380       -6.52619       -3.66737

--Link1--
%chk=JID_5634.chk
%mem=8GB
%nprocshared=4
# B3LYP/6-311++G(d,p) empiricaldispersion=gd3bj scf=xqc pop=npa geom=check

CID_107893423_JID_5634_Energie_neutraal

0 1

--Link1--
%chk=JID_5634.chk
%mem=8GB
%nprocshared=4
# B3LYP/6-311++G(d,p) empiricaldispersion=gd3bj scf=xqc pop=npa geom=check

CID_107893423_JID_5634_Energie_kation

1 2

--Link1--
%chk=JID_5634.chk
%mem=8GB
%nprocshared=4
# B3LYP/6-311++G(d,p) empiricaldispersion=gd3bj scf=xqc pop=npa geom=check

CID_107893423_JID_5634_Energie_anion

-1 2
