%chk=JID_7687.chk
%mem=8GB
%nprocshared=4
# opt freq B3LYP/6-31G(d) empiricaldispersion=gd3bj scf=xqc

CID_151550030_JID_7687_neutraal

0 1
C         -0.02900        0.88300        0.00000
C         -0.77783       -0.41023       -0.16603
C          0.66204       -0.42760        0.30954
C          1.75236       -0.93751       -0.60230
C          1.67689       -2.21074       -1.19311
C          2.69091       -2.70832       -2.03186
C          2.59851       -3.97963       -2.62218
C          3.61438       -4.45741       -3.45181
C          4.73540       -3.67148       -3.70145
C          4.84252       -2.40626       -3.12209
C          3.82801       -1.91220       -2.28578
C          3.91814       -0.64559       -1.69389
C          2.89684       -0.17169       -0.86474
C         -1.87663       -0.78960        0.77402
N         -3.13644       -0.22157        0.29072
N         -3.40071        0.92445        0.69393
N         -3.64181        1.97351        1.06852
H         -0.27265        1.53032        0.83482
H          0.24280        1.42016       -0.90256
H         -0.98773       -0.73888       -1.17906
H          0.82483       -0.63550        1.36592
H          0.80165       -2.82607       -0.99181
H          1.72990       -4.60821       -2.43952
H          3.52887       -5.44270       -3.90244
H          5.52729       -4.04182       -4.34712
H          5.72584       -1.80617       -3.32823
H          4.78603       -0.01481       -1.87145
H          2.99725        0.81426       -0.41559
H         -1.97120       -1.88083        0.78792
H         -1.66508       -0.47372        1.80372

--Link1--
%chk=JID_7687.chk
%mem=8GB
%nprocshared=4
# B3LYP/6-311++G(d,p) empiricaldispersion=gd3bj scf=xqc pop=npa geom=check

CID_151550030_JID_7687_Energie_neutraal

0 1

--Link1--
%chk=JID_7687.chk
%mem=8GB
%nprocshared=4
# B3LYP/6-311++G(d,p) empiricaldispersion=gd3bj scf=xqc pop=npa geom=check

CID_151550030_JID_7687_Energie_kation

1 2

--Link1--
%chk=JID_7687.chk
%mem=8GB
%nprocshared=4
# B3LYP/6-311++G(d,p) empiricaldispersion=gd3bj scf=xqc pop=npa geom=check

CID_151550030_JID_7687_Energie_anion

-1 2
