%chk=JID_8332.chk
%mem=8GB
%nprocshared=4
# opt freq B3LYP/6-31G(d) empiricaldispersion=gd3bj scf=xqc

CID_10332171_JID_8332_neutraal

0 1
C          0.96426        0.02789        0.08914
C          1.00330        0.04340       -1.43342
C          1.20798       -1.33884       -2.01878
C          0.23155       -2.06536       -2.60079
C         -1.20632       -1.67290       -2.78287
C         -1.46419       -0.85706       -4.05311
C         -1.43208       -1.70230       -5.32911
C         -1.88000       -0.89469       -6.60679
C         -0.49029       -1.11388       -7.12089
C         -0.09587       -1.83619       -6.02313
C          1.16346       -2.38417       -5.94733
C          2.04677       -2.15031       -7.01015
C          1.64791       -1.38856       -8.12473
C          0.35157       -0.86644       -8.18148
O          2.42514       -1.09960       -9.21417
C          3.76236       -1.58250       -9.19592
C          2.61873       -1.87063       -1.95906
O          3.44644       -1.09727       -2.81593
H          0.17255       -0.63280        0.45794
H          0.76774        1.03544        0.46984
H          1.91588       -0.30788        0.51294
H          0.07573        0.49519       -1.80052
H          1.80431        0.71098       -1.77245
H          0.47451       -3.05352       -2.98904
H         -1.81932       -2.58264       -2.78567
H         -1.54180       -1.09605       -1.91269
H         -2.47059       -0.42822       -3.95710
H         -0.77455       -0.00609       -4.12057
H         -1.99660       -2.63803       -5.21957
H         -2.16709        0.14765       -6.42676
H         -2.68556       -1.37372       -7.17513
H          1.47181       -2.98889       -5.10396
H          3.04010       -2.58278       -6.94605
H          0.02033       -0.29020       -9.03795
H          4.32290       -1.16480       -8.35299
H          3.78565       -2.67719       -9.18385
H          4.25064       -1.24983      -10.11697
H          3.02082       -1.82349       -0.94313
H          2.68015       -2.91353       -2.28727
H          2.93241       -0.92588       -3.62473

--Link1--
%chk=JID_8332.chk
%mem=8GB
%nprocshared=4
# B3LYP/6-311++G(d,p) empiricaldispersion=gd3bj scf=xqc pop=npa geom=check

CID_10332171_JID_8332_Energie_neutraal

0 1

--Link1--
%chk=JID_8332.chk
%mem=8GB
%nprocshared=4
# B3LYP/6-311++G(d,p) empiricaldispersion=gd3bj scf=xqc pop=npa geom=check

CID_10332171_JID_8332_Energie_kation

1 2

--Link1--
%chk=JID_8332.chk
%mem=8GB
%nprocshared=4
# B3LYP/6-311++G(d,p) empiricaldispersion=gd3bj scf=xqc pop=npa geom=check

CID_10332171_JID_8332_Energie_anion

-1 2
