%chk=JID_4822.chk
%mem=8GB
%nprocshared=4
# opt freq B3LYP/6-31G(d) empiricaldispersion=gd3bj scf=xqc

CID_126997461_JID_4822_neutraal

0 1
C          1.54700       -0.56900        0.23900
C          1.41502        0.89247       -0.18203
C          0.24980        1.62691        0.47639
C         -1.09686        1.27308       -0.08124
C         -1.63593        0.03978       -0.11916
C         -0.93713       -1.18850        0.41781
C          0.41463       -1.47536       -0.23883
C         -2.96350       -0.16723       -0.68066
C         -3.29659        0.13574       -1.94211
C         -4.66878       -0.11752       -2.43583
S         -5.18271        0.22992       -3.99024
N         -5.54596       -0.67442       -1.53909
N         -5.25756       -0.99473       -0.24594
C         -4.04798       -0.75137        0.14560
H          1.63973       -0.63428        1.33007
H          2.48719       -0.95618       -0.17353
H          2.34237        1.40663        0.10076
H          1.34273        0.96218       -1.27466
H          0.39827        2.70286        0.31775
H          0.25449        1.47902        1.56287
H         -1.66862        2.11962       -0.46198
H         -1.56633       -2.07379        0.25554
H         -0.82495       -1.10039        1.50596
H          0.32813       -1.42591       -1.33147
H          0.69383       -2.50888        0.00314
H         -2.58069        0.56180       -2.63600
H         -6.49820       -0.86255       -1.84223
H         -3.78133       -0.98983        1.18885

--Link1--
%chk=JID_4822.chk
%mem=8GB
%nprocshared=4
# B3LYP/6-311++G(d,p) empiricaldispersion=gd3bj scf=xqc pop=npa geom=check

CID_126997461_JID_4822_Energie_neutraal

0 1

--Link1--
%chk=JID_4822.chk
%mem=8GB
%nprocshared=4
# B3LYP/6-311++G(d,p) empiricaldispersion=gd3bj scf=xqc pop=npa geom=check

CID_126997461_JID_4822_Energie_kation

1 2

--Link1--
%chk=JID_4822.chk
%mem=8GB
%nprocshared=4
# B3LYP/6-311++G(d,p) empiricaldispersion=gd3bj scf=xqc pop=npa geom=check

CID_126997461_JID_4822_Energie_anion

-1 2
