%chk=JID_9505.chk
%mem=8GB
%nprocshared=4
# opt freq B3LYP/6-31G(d) empiricaldispersion=gd3bj scf=xqc

CID_81165005_JID_9505_neutraal

0 1
C          1.03391        0.06566        0.06737
C          0.21537        1.15619       -0.55119
C          0.73266        2.37092       -0.98368
S         -0.47590        3.39616       -1.62277
C         -1.69754        2.25216       -1.33709
N         -2.97343        2.53440       -1.64935
C         -3.80251        1.53672       -1.34159
N         -3.48932        0.35164       -0.79713
C         -2.19518        0.09231       -0.52692
C         -1.21952        1.07953       -0.77486
N         -1.89455       -1.15919        0.05504
C         -2.08284       -2.38035       -0.75127
C         -1.13922       -2.41754       -1.99514
C         -0.75487       -3.85322       -1.59370
C         -1.17089       -3.50397       -0.15408
C         -3.61217       -2.79016       -0.93579
O         -4.44435       -2.97763       -0.05264
O         -4.00441       -2.94044       -2.22563
C          2.14922        2.84576       -0.93834
H          1.27655       -0.69903       -0.67520
H          0.50687       -0.40233        0.90352
H          1.97669        0.45221        0.46792
H         -4.85390        1.70273       -1.55540
H         -2.61737       -1.23057        0.78088
H         -1.61486       -2.32614       -2.97563
H         -0.29212       -1.72498       -1.97049
H          0.29645       -4.11840       -1.73137
H         -1.38017       -4.62392       -2.05820
H         -0.33865       -3.14792        0.46606
H         -1.68468       -4.30548        0.38476
H         -4.95931       -3.14671       -2.14981
H          2.47628        2.95473        0.10111
H          2.80686        2.12327       -1.43289
H          2.28416        3.81210       -1.43509

--Link1--
%chk=JID_9505.chk
%mem=8GB
%nprocshared=4
# B3LYP/6-311++G(d,p) empiricaldispersion=gd3bj scf=xqc pop=npa geom=check

CID_81165005_JID_9505_Energie_neutraal

0 1

--Link1--
%chk=JID_9505.chk
%mem=8GB
%nprocshared=4
# B3LYP/6-311++G(d,p) empiricaldispersion=gd3bj scf=xqc pop=npa geom=check

CID_81165005_JID_9505_Energie_kation

1 2

--Link1--
%chk=JID_9505.chk
%mem=8GB
%nprocshared=4
# B3LYP/6-311++G(d,p) empiricaldispersion=gd3bj scf=xqc pop=npa geom=check

CID_81165005_JID_9505_Energie_anion

-1 2
