%chk=JID_6012.chk
%mem=8GB
%nprocshared=4
# opt freq B3LYP/6-31G(d) empiricaldispersion=gd3bj scf=xqc

CID_128291972_JID_6012_neutraal

0 1
C          1.77000        0.00000        0.98600
C          2.56677       -0.07383       -0.27373
C          1.07070       -0.28461       -0.33693
C          0.18394        0.84570       -0.86385
O         -1.08492        0.82782       -0.18431
C         -1.74901       -0.44051       -0.33323
C         -0.88496       -1.58508        0.21460
N          0.41976       -1.59571       -0.46907
C          0.45640       -2.30849       -1.68418
O         -0.54217       -2.83806       -2.17695
C          1.73228       -2.43247       -2.42474
N          2.84686       -2.81380       -1.74569
C          3.95096       -2.99180       -2.50792
C          3.94994       -2.80266       -3.88127
N          2.83984       -2.43582       -4.56193
C          1.72469       -2.27391       -3.80345
H          1.62707        0.96937        1.44952
H          1.87616       -0.81299        1.69593
H          3.25396       -0.90581       -0.33659
H          2.97511        0.84857       -0.67149
H          0.02016        0.74008       -1.94266
H          0.63697        1.82737       -0.68905
H         -2.69000       -0.38711        0.22293
H         -1.99254       -0.58686       -1.39166
H         -0.69072       -1.43657        1.28300
H         -1.39079       -2.54843        0.09190
H          4.84840       -3.29522       -1.97997
H          4.84611       -2.94788       -4.47435
H          0.81907       -2.01707       -4.34266

--Link1--
%chk=JID_6012.chk
%mem=8GB
%nprocshared=4
# B3LYP/6-311++G(d,p) empiricaldispersion=gd3bj scf=xqc pop=npa geom=check

CID_128291972_JID_6012_Energie_neutraal

0 1

--Link1--
%chk=JID_6012.chk
%mem=8GB
%nprocshared=4
# B3LYP/6-311++G(d,p) empiricaldispersion=gd3bj scf=xqc pop=npa geom=check

CID_128291972_JID_6012_Energie_kation

1 2

--Link1--
%chk=JID_6012.chk
%mem=8GB
%nprocshared=4
# B3LYP/6-311++G(d,p) empiricaldispersion=gd3bj scf=xqc pop=npa geom=check

CID_128291972_JID_6012_Energie_anion

-1 2
