%chk=JID_7802.chk
%mem=8GB
%nprocshared=4
# opt freq B3LYP/6-31G(d) empiricaldispersion=gd3bj scf=xqc

CID_79026491_JID_7802_neutraal

0 1
C          1.34400       -0.22500        0.03600
C          1.13474        1.14963       -0.11254
C         -0.10854        1.61061       -0.54519
C         -1.13570        0.71015       -0.83290
C         -0.91874       -0.66275       -0.67466
C          0.33154       -1.14233       -0.27489
N          0.58375       -2.51845        0.03002
S         -0.11901       -3.77290       -0.85097
O         -0.55754       -3.29202       -2.14106
O          0.82094       -4.87006       -0.74782
C         -1.54781       -4.19999        0.13375
C         -1.19868       -4.41172        1.59208
O         -1.23026       -3.18094        2.31137
S         -0.39520        3.34396       -0.74809
O          0.81148        4.06895       -0.42526
O         -1.12902        3.55500       -1.97269
N         -1.46515        3.67025        0.50461
H          2.31224       -0.56641        0.39454
H          1.93904        1.84534        0.11749
H         -2.10580        1.06727       -1.17223
H         -1.74604       -1.33244       -0.88555
H          1.56418       -2.75456        0.20643
H         -2.29559       -3.41394        0.00193
H         -1.92932       -5.12911       -0.30267
H         -1.95541       -5.05364        2.05401
H         -0.22383       -4.88524        1.74201
H         -0.51779       -2.61306        1.96033
H         -1.03571        4.32048        1.16384
H         -2.35199        4.00160        0.12318

--Link1--
%chk=JID_7802.chk
%mem=8GB
%nprocshared=4
# B3LYP/6-311++G(d,p) empiricaldispersion=gd3bj scf=xqc pop=npa geom=check

CID_79026491_JID_7802_Energie_neutraal

0 1

--Link1--
%chk=JID_7802.chk
%mem=8GB
%nprocshared=4
# B3LYP/6-311++G(d,p) empiricaldispersion=gd3bj scf=xqc pop=npa geom=check

CID_79026491_JID_7802_Energie_kation

1 2

--Link1--
%chk=JID_7802.chk
%mem=8GB
%nprocshared=4
# B3LYP/6-311++G(d,p) empiricaldispersion=gd3bj scf=xqc pop=npa geom=check

CID_79026491_JID_7802_Energie_anion

-1 2
