%chk=JID_7881.chk
%mem=8GB
%nprocshared=4
# opt freq B3LYP/6-31G(d) empiricaldispersion=gd3bj scf=xqc

CID_64155095_JID_7881_neutraal

0 1
C         -0.02900        0.88300        0.00000
C          0.03903       -0.28778        0.93144
C          1.10394       -0.10052       -0.11756
N          1.22473       -0.99935       -1.26490
C          1.33419       -2.44587       -1.00972
C          0.00558       -3.16273       -1.23930
C          0.07998       -4.11574       -2.41180
S          0.46327       -5.72795       -2.25119
N         -0.13541       -3.58623       -3.64809
S          1.34663       -0.35050       -2.80738
O          0.26151       -0.88394       -3.60859
O          1.60832        1.06840       -2.73250
C          2.78196       -1.02661       -3.54891
C          4.12826       -0.74555       -3.46307
N          4.86598       -1.60312       -4.24071
C          3.98669       -2.39089       -4.81470
N          2.71634       -2.07852       -4.43236
H          0.20084        1.86710        0.39207
H         -0.79653        0.88280       -0.76508
H          0.30518       -0.09818        1.96468
H         -0.70301       -1.06587        0.80210
H          2.07803        0.24179        0.22494
H          2.14700       -2.87173       -1.60650
H          1.64275       -2.59264        0.03357
H         -0.26258       -3.72742       -0.33745
H         -0.81053       -2.45129       -1.41481
H         -0.46107       -2.62238       -3.76703
H         -0.22508       -4.20960       -4.44304
H          4.60112        0.03061       -2.87447
H          4.20806       -3.19355       -5.50645
H          1.86327       -2.53773       -4.72672

--Link1--
%chk=JID_7881.chk
%mem=8GB
%nprocshared=4
# B3LYP/6-311++G(d,p) empiricaldispersion=gd3bj scf=xqc pop=npa geom=check

CID_64155095_JID_7881_Energie_neutraal

0 1

--Link1--
%chk=JID_7881.chk
%mem=8GB
%nprocshared=4
# B3LYP/6-311++G(d,p) empiricaldispersion=gd3bj scf=xqc pop=npa geom=check

CID_64155095_JID_7881_Energie_kation

1 2

--Link1--
%chk=JID_7881.chk
%mem=8GB
%nprocshared=4
# B3LYP/6-311++G(d,p) empiricaldispersion=gd3bj scf=xqc pop=npa geom=check

CID_64155095_JID_7881_Energie_anion

-1 2
