%chk=JID_9297.chk
%mem=8GB
%nprocshared=4
# opt freq B3LYP/6-31G(d) empiricaldispersion=gd3bj scf=xqc

CID_104381886_JID_9297_neutraal

0 1
C          1.04056        0.05972       -0.06920
O          0.10282       -0.59006        0.77913
C          0.59087       -1.82292        1.31439
C          0.01552       -3.01292        0.53975
N          0.59211       -3.16071       -0.78797
C          1.73395       -3.79834       -1.17817
O          2.06924       -3.70850       -2.35960
C          2.53850       -4.61244       -0.16076
N          4.00381       -4.38364       -0.23806
C          4.36143       -3.15824        0.34088
C          4.57572       -1.97812       -0.36030
C          4.86373       -0.79685        0.32897
C          4.93533       -0.83835        1.71601
C          4.73982       -2.05326        2.35486
N          4.44924       -3.19039        1.69345
N          4.77113       -2.13160        3.74229
N          4.58710       -1.93797       -1.80366
O          5.41449       -2.64642       -2.39211
O          3.86238       -1.08048       -2.33306
H          0.57653        0.97050       -0.45717
H          1.31704       -0.57405       -0.91451
H          1.93098        0.34232        0.49952
H          1.68473       -1.84152        1.34735
H          0.22788       -1.87578        2.34623
H          0.16480       -3.93989        1.09937
H         -1.06069       -2.87502        0.38987
H          0.16526       -2.62590       -1.53765
H          2.19096       -4.45425        0.86324
H          2.34942       -5.66675       -0.39540
H          4.39208       -5.06031        0.42310
H          5.03609        0.13669       -0.20085
H          5.14056        0.06212        2.28572
H          4.66207       -3.10818        4.00396
H          5.61988       -1.73387        4.12953

--Link1--
%chk=JID_9297.chk
%mem=8GB
%nprocshared=4
# B3LYP/6-311++G(d,p) empiricaldispersion=gd3bj scf=xqc pop=npa geom=check

CID_104381886_JID_9297_Energie_neutraal

0 1

--Link1--
%chk=JID_9297.chk
%mem=8GB
%nprocshared=4
# B3LYP/6-311++G(d,p) empiricaldispersion=gd3bj scf=xqc pop=npa geom=check

CID_104381886_JID_9297_Energie_kation

1 2

--Link1--
%chk=JID_9297.chk
%mem=8GB
%nprocshared=4
# B3LYP/6-311++G(d,p) empiricaldispersion=gd3bj scf=xqc pop=npa geom=check

CID_104381886_JID_9297_Energie_anion

-1 2
