%chk=JID_5887.chk
%mem=8GB
%nprocshared=4
# opt freq B3LYP/6-31G(d) empiricaldispersion=gd3bj scf=xqc

CID_137401455_JID_5887_neutraal

0 1
C          2.44200       -0.09800       -0.00700
C          0.94755       -0.17254        0.09671
C          0.20646       -1.28382       -0.30609
C         -1.19173       -1.22329       -0.25482
C         -1.82308       -0.08110        0.24222
C         -1.00631        0.96707        0.64500
N          0.34702        0.94088        0.59062
C         -3.32126        0.03772        0.26820
O         -3.78150        0.75552        1.41301
C         -3.90373       -0.06674        2.56711
C          0.81221       -2.51923       -0.84287
O          0.44799       -2.93490       -1.94028
C          1.78844       -3.27898        0.00970
C          3.05738       -3.56526       -0.73195
O          4.15721       -3.19345       -0.33213
H          2.78821       -0.48440       -0.97025
H          2.77902        0.94205        0.06368
H          2.91226       -0.65494        0.80744
H         -1.78185       -2.06526       -0.61219
H         -1.42878        1.89354        1.02925
H         -3.63334        0.60138       -0.61814
H         -3.80698       -0.94438        0.21825
H         -4.64325       -0.85517        2.39763
H         -2.93952       -0.50589        2.83936
H         -4.24690        0.55786        3.39634
H          2.01456       -2.75097        0.93920
H          1.32854       -4.23353        0.28653
H          2.95697       -4.15196       -1.66165

--Link1--
%chk=JID_5887.chk
%mem=8GB
%nprocshared=4
# B3LYP/6-311++G(d,p) empiricaldispersion=gd3bj scf=xqc pop=npa geom=check

CID_137401455_JID_5887_Energie_neutraal

0 1

--Link1--
%chk=JID_5887.chk
%mem=8GB
%nprocshared=4
# B3LYP/6-311++G(d,p) empiricaldispersion=gd3bj scf=xqc pop=npa geom=check

CID_137401455_JID_5887_Energie_kation

1 2

--Link1--
%chk=JID_5887.chk
%mem=8GB
%nprocshared=4
# B3LYP/6-311++G(d,p) empiricaldispersion=gd3bj scf=xqc pop=npa geom=check

CID_137401455_JID_5887_Energie_anion

-1 2
