%chk=JID_10485.chk
%mem=8GB
%nprocshared=4
# opt freq B3LYP/6-31G(d) empiricaldispersion=gd3bj scf=xqc

CID_64546402_JID_10485_neutraal

0 1
C          1.08599       -0.02266       -0.04575
C         -0.06933        0.14073        0.93163
C          0.00469       -0.92963        2.03320
O         -0.08280       -2.13490        1.84929
N          0.17734       -0.30828        3.23982
C          0.29512        1.03412        3.06785
O          0.53122        1.87269        3.91988
N          0.08944        1.32692        1.74085
C          0.43041       -1.00902        4.48045
C         -0.79690       -1.73255        5.02967
O         -0.75785       -2.93492        5.30168
N         -1.94985       -1.06679        5.32509
C         -2.19545        0.36570        5.42632
C         -2.97374        0.92258        4.23471
C         -4.33338        0.33396        4.11469
N         -5.47980        0.87034        4.47331
C         -6.39331       -0.08060        4.11809
N         -5.88124       -1.18092        3.56370
N         -4.56984       -0.89842        3.56893
C         -1.42450        0.11469        0.23929
H          1.12040        0.80973       -0.75730
H          0.99557       -0.95513       -0.61380
H          2.05032       -0.05038        0.47528
H          0.18801        2.27380        1.39508
H          1.20408       -1.76121        4.28718
H          0.80504       -0.32035        5.24427
H         -2.62824       -1.67635        5.77369
H         -2.76352        0.51662        6.35180
H         -1.24394        0.88845        5.54378
H         -3.06576        2.00921        4.34729
H         -2.43305        0.74502        3.30211
H         -7.45942        0.03294        4.26791
H         -3.90853       -1.57773        3.20605
H         -1.53125        0.96029       -0.44903
H         -1.55903       -0.81080       -0.33140
H         -2.24661        0.17227        0.96132

--Link1--
%chk=JID_10485.chk
%mem=8GB
%nprocshared=4
# B3LYP/6-311++G(d,p) empiricaldispersion=gd3bj scf=xqc pop=npa geom=check

CID_64546402_JID_10485_Energie_neutraal

0 1

--Link1--
%chk=JID_10485.chk
%mem=8GB
%nprocshared=4
# B3LYP/6-311++G(d,p) empiricaldispersion=gd3bj scf=xqc pop=npa geom=check

CID_64546402_JID_10485_Energie_kation

1 2

--Link1--
%chk=JID_10485.chk
%mem=8GB
%nprocshared=4
# B3LYP/6-311++G(d,p) empiricaldispersion=gd3bj scf=xqc pop=npa geom=check

CID_64546402_JID_10485_Energie_anion

-1 2
