%chk=JID_1454.chk
%mem=8GB
%nprocshared=4
# opt freq B3LYP/6-31G(d) empiricaldispersion=gd3bj scf=xqc

CID_15047237_JID_1454_neutraal

0 1
C          1.02377       -0.07779        0.05816
C          0.09028        1.11056        0.30643
C          0.82313        2.26084        1.00583
C          1.16529        3.17788       -0.12070
C          0.49087        2.89355       -1.24200
C         -0.41744        1.71058       -1.01423
N          0.53862        3.54932       -2.45247
C         -0.24331        3.18327       -3.63559
C          0.34304        4.03337       -4.75738
C          0.78505        5.29000       -4.03232
C          1.34004        4.74648       -2.72045
H          0.49179       -0.88298       -0.45952
H          1.39629       -0.47891        1.00666
H          1.88812        0.20358       -0.55292
H         -0.74896        0.75850        0.91782
H          0.16763        2.77772        1.71511
H          1.71806        1.92495        1.53832
H          1.86309        3.99472       -0.01138
H         -0.37298        0.98173       -1.82938
H         -1.45231        2.05738       -0.91104
H         -1.29842        3.43095       -3.47298
H         -0.15870        2.11912       -3.87786
H          1.21204        3.52957       -5.19768
H         -0.37901        4.23145       -5.55428
H          1.52442        5.86901       -4.59241
H         -0.08086        5.93425       -3.83734
H          2.39403        4.46732       -2.83106
H          1.25014        5.49526       -1.92639

--Link1--
%chk=JID_1454.chk
%mem=8GB
%nprocshared=4
# B3LYP/6-311++G(d,p) empiricaldispersion=gd3bj scf=xqc pop=npa geom=check

CID_15047237_JID_1454_Energie_neutraal

0 1

--Link1--
%chk=JID_1454.chk
%mem=8GB
%nprocshared=4
# B3LYP/6-311++G(d,p) empiricaldispersion=gd3bj scf=xqc pop=npa geom=check

CID_15047237_JID_1454_Energie_kation

1 2

--Link1--
%chk=JID_1454.chk
%mem=8GB
%nprocshared=4
# B3LYP/6-311++G(d,p) empiricaldispersion=gd3bj scf=xqc pop=npa geom=check

CID_15047237_JID_1454_Energie_anion

-1 2
