%chk=JID_6729.chk
%mem=8GB
%nprocshared=4
# opt freq B3LYP/6-31G(d) empiricaldispersion=gd3bj scf=xqc

CID_106564903_JID_6729_neutraal

0 1
C          1.05769       -0.07399       -0.03460
C          0.70076        1.40265       -0.09109
C          0.98955        2.06495       -1.45576
C          0.22395        1.43187       -2.65022
C         -1.30054        1.48618       -2.51331
C          0.64434        2.05762       -3.98615
N          0.65653        3.48182       -1.32422
C          1.55392        4.43503       -1.64158
N          2.74335        4.25159       -2.17011
C          3.29552        5.49426       -2.34021
C          2.42436        6.46083       -1.89697
N          1.31791        5.77951       -1.44645
C          0.15576        6.43741       -0.86095
C         -1.10434        6.28085       -1.71218
C         -0.07609        6.04642        0.59944
C          4.64031        5.64594       -2.93321
H          0.40325       -0.67091       -0.67615
H          0.94478       -0.44781        0.98826
H          2.09460       -0.24066       -0.34259
H         -0.35033        1.53376        0.19243
H          1.28326        1.92390        0.68046
H          2.06381        1.93468       -1.64596
H          0.50785        0.37351       -2.70744
H         -1.66784        2.51638       -2.46888
H         -1.77898        1.00204       -3.37204
H         -1.64123        0.96046       -1.61677
H          1.73209        2.02394       -4.10770
H          0.20131        1.50748       -4.82361
H          0.32031        3.10013       -4.06772
H         -0.26475        3.68607       -0.96632
H          2.49863        7.53844       -1.86373
H          0.39632        7.50966       -0.85760
H         -1.47357        5.25176       -1.72761
H         -1.90948        6.91289       -1.32208
H         -0.91449        6.58063       -2.74868
H          0.84209        6.16349        1.18566
H         -0.84446        6.68521        1.04822
H         -0.40880        5.01032        0.70760
H          5.33503        4.92024       -2.49917
H          4.59785        5.47942       -4.01391
H          5.04152        6.64852       -2.75519

--Link1--
%chk=JID_6729.chk
%mem=8GB
%nprocshared=4
# B3LYP/6-311++G(d,p) empiricaldispersion=gd3bj scf=xqc pop=npa geom=check

CID_106564903_JID_6729_Energie_neutraal

0 1

--Link1--
%chk=JID_6729.chk
%mem=8GB
%nprocshared=4
# B3LYP/6-311++G(d,p) empiricaldispersion=gd3bj scf=xqc pop=npa geom=check

CID_106564903_JID_6729_Energie_kation

1 2

--Link1--
%chk=JID_6729.chk
%mem=8GB
%nprocshared=4
# B3LYP/6-311++G(d,p) empiricaldispersion=gd3bj scf=xqc pop=npa geom=check

CID_106564903_JID_6729_Energie_anion

-1 2
