%chk=JID_10638.chk
%mem=8GB
%nprocshared=4
# opt freq B3LYP/6-31G(d) empiricaldispersion=gd3bj scf=xqc

CID_81083458_JID_10638_neutraal

0 1
C          1.07252       -0.05763        0.03768
C          0.25447       -1.34436        0.02024
C          0.99310       -2.59511        0.48723
C         -1.12069       -1.19736        0.65038
O         -2.11174       -1.20883       -0.09612
N         -1.39464       -1.07586        1.97271
C         -0.68583       -0.92681        3.17830
C         -1.46866       -0.98270        4.35200
C         -0.92039       -0.84127        5.62592
C          0.45568       -0.61046        5.71862
C          1.24766       -0.54217        4.57352
C          0.67621       -0.69927        3.30949
N         -1.61963       -0.87440        6.84539
C         -2.88111       -1.15468        7.27579
O         -3.09758       -0.91615        8.47414
C         -4.01909       -1.70578        6.41295
C         -4.64289       -0.61375        5.52162
O         -4.94297       -1.14543        4.21956
C         -5.60557       -0.18586        3.40347
N         -3.65139       -2.98088        5.75203
H          2.13055       -0.24744        0.24457
H          0.69301        0.67779        0.75327
H          1.02255        0.42572       -0.94550
H          0.04849       -1.54061       -1.04382
H          1.32525       -2.54940        1.52393
H          0.34651       -3.47555        0.39843
H          1.87863       -2.76885       -0.13384
H         -2.40549       -1.10021        2.07791
H         -2.52783       -1.13429        4.22573
H          0.93794       -0.48469        6.68597
H          2.31635       -0.36051        4.66514
H          1.34083       -0.61456        2.46505
H         -1.06546       -0.61969        7.65754
H         -4.80419       -1.99673        7.12447
H         -5.57611       -0.26593        5.98194
H         -3.98010        0.25207        5.41183
H         -6.56121        0.10256        3.85136
H         -4.97280        0.69527        3.26058
H         -5.79867       -0.63986        2.42795
H         -4.23310       -3.04897        4.91108
H         -2.69019       -2.94789        5.42301

--Link1--
%chk=JID_10638.chk
%mem=8GB
%nprocshared=4
# B3LYP/6-311++G(d,p) empiricaldispersion=gd3bj scf=xqc pop=npa geom=check

CID_81083458_JID_10638_Energie_neutraal

0 1

--Link1--
%chk=JID_10638.chk
%mem=8GB
%nprocshared=4
# B3LYP/6-311++G(d,p) empiricaldispersion=gd3bj scf=xqc pop=npa geom=check

CID_81083458_JID_10638_Energie_kation

1 2

--Link1--
%chk=JID_10638.chk
%mem=8GB
%nprocshared=4
# B3LYP/6-311++G(d,p) empiricaldispersion=gd3bj scf=xqc pop=npa geom=check

CID_81083458_JID_10638_Energie_anion

-1 2
