%chk=JID_10019.chk
%mem=8GB
%nprocshared=4
# opt freq B3LYP/6-31G(d) empiricaldispersion=gd3bj scf=xqc

CID_80457726_JID_10019_neutraal

0 1
C          1.01361        0.07243        0.06759
C          0.53456       -0.74242        1.28055
C          1.36733       -0.30945        2.49600
C         -0.98936       -0.54839        1.51302
C         -1.93791       -1.17957        0.47376
O         -3.15796       -1.04298        0.49714
O         -1.27501       -1.91190       -0.46279
C         -2.12378       -2.56791       -1.40518
N         -1.45638       -0.97499        2.84054
C         -1.98271       -0.08897        3.80960
C         -2.28998       -0.83349        4.94642
C         -2.82206       -0.27322        6.08428
C         -3.04995        1.10790        6.06632
C         -2.74401        1.87868        4.92461
C         -2.20246        1.27247        3.78025
O         -2.92566        3.23198        4.80767
C         -3.51227        3.90417        5.91500
N         -1.96498       -2.16114        4.70401
C         -1.44927       -2.27544        3.40429
S         -0.96655       -3.72257        2.75947
H          0.85927        1.14544        0.22666
H          0.49012       -0.20751       -0.85021
H          2.08314       -0.08910       -0.10667
H          0.75699       -1.79639        1.08084
H          1.15744        0.73017        2.77002
H          1.16870       -0.93964        3.36777
H          2.43857       -0.39071        2.28101
H         -1.17745        0.52743        1.41376
H         -2.79838       -3.26338       -0.89610
H         -2.68876       -1.83332       -1.98733
H         -1.49090       -3.13911       -2.08992
H         -3.05567       -0.86843        6.95863
H         -3.46838        1.56203        6.95923
H         -1.97776        1.87834        2.91168
H         -4.51774        3.52288        6.12163
H         -2.87240        3.83624        6.80090
H         -3.60528        4.96238        5.65241
H         -2.08628       -2.93446        5.33995

--Link1--
%chk=JID_10019.chk
%mem=8GB
%nprocshared=4
# B3LYP/6-311++G(d,p) empiricaldispersion=gd3bj scf=xqc pop=npa geom=check

CID_80457726_JID_10019_Energie_neutraal

0 1

--Link1--
%chk=JID_10019.chk
%mem=8GB
%nprocshared=4
# B3LYP/6-311++G(d,p) empiricaldispersion=gd3bj scf=xqc pop=npa geom=check

CID_80457726_JID_10019_Energie_kation

1 2

--Link1--
%chk=JID_10019.chk
%mem=8GB
%nprocshared=4
# B3LYP/6-311++G(d,p) empiricaldispersion=gd3bj scf=xqc pop=npa geom=check

CID_80457726_JID_10019_Energie_anion

-1 2
