%chk=JID_8473.chk
%mem=8GB
%nprocshared=4
# opt freq B3LYP/6-31G(d) empiricaldispersion=gd3bj scf=xqc

CID_82745171_JID_8473_neutraal

0 1
C          2.34700       -0.19300        0.01200
C          0.89432       -0.31873        0.33085
C          0.14201       -1.45598        0.56261
C         -1.23204       -1.15853        0.81602
C         -1.48732        0.19839        0.79936
S         -0.06806        1.09372        0.46180
C         -2.79153        0.89801        1.02316
N         -3.11472        0.92956        2.44525
S          0.77706       -3.07530        0.55005
O         -0.24645       -3.87813        1.18476
O          1.16653       -3.28032       -0.82623
N          2.16362       -3.11665        1.54099
C          1.89002       -2.86512        2.97591
C          3.14563       -4.22763        1.34370
C          3.98240       -4.05494        0.08545
C          3.76255       -5.33840       -0.68918
O          3.39199       -6.32196        0.28295
C          2.57098       -5.63815        1.24110
H          2.60828        0.81189       -0.33634
H          2.95047       -0.40599        0.89995
H          2.63172       -0.89312       -0.77916
H         -1.99331       -1.90569        1.01089
H         -2.76475        1.92300        0.63717
H         -3.58618        0.37259        0.48076
H         -4.02652        1.36544        2.56700
H         -3.20562       -0.02485        2.78799
H          1.46656       -3.75359        3.45355
H          2.82140       -2.59915        3.48638
H          1.20703       -2.02186        3.10907
H          3.84455       -4.20968        2.19165
H          5.04051       -3.98582        0.36799
H          3.76099       -3.16553       -0.51023
H          2.94619       -5.24110       -1.41241
H          4.66013       -5.66601       -1.22108
H          2.61963       -6.16886        2.19686
H          1.54036       -5.68563        0.88454

--Link1--
%chk=JID_8473.chk
%mem=8GB
%nprocshared=4
# B3LYP/6-311++G(d,p) empiricaldispersion=gd3bj scf=xqc pop=npa geom=check

CID_82745171_JID_8473_Energie_neutraal

0 1

--Link1--
%chk=JID_8473.chk
%mem=8GB
%nprocshared=4
# B3LYP/6-311++G(d,p) empiricaldispersion=gd3bj scf=xqc pop=npa geom=check

CID_82745171_JID_8473_Energie_kation

1 2

--Link1--
%chk=JID_8473.chk
%mem=8GB
%nprocshared=4
# B3LYP/6-311++G(d,p) empiricaldispersion=gd3bj scf=xqc pop=npa geom=check

CID_82745171_JID_8473_Energie_anion

-1 2
