%chk=JID_1073.chk
%mem=8GB
%nprocshared=4
# opt freq B3LYP/6-31G(d) empiricaldispersion=gd3bj scf=xqc

CID_154087121_JID_1073_neutraal

0 1
C          1.02675       -0.08341       -0.04824
C          1.43497       -1.39366       -0.69636
O          2.84015       -1.62600       -0.63855
C          3.62603       -0.73772       -1.44728
C          3.32274       -0.82091       -2.95457
N          2.36780        0.22053       -3.37663
C          1.48582       -0.22957       -4.46002
C          2.20701       -0.33288       -5.81291
O          1.39494       -0.99598       -6.79414
C          1.41683       -2.41579       -6.66789
C          2.59530       -3.00605       -7.42272
H          1.45335       -0.00134        0.95670
H         -0.06275       -0.01480        0.02448
H          1.38055        0.77907       -0.61963
H          0.97057       -2.21032       -0.13225
H          1.05393       -1.48089       -1.71665
H          3.56448        0.28417       -1.05651
H          4.66180       -1.06271       -1.29466
H          4.26737       -0.66350       -3.49148
H          2.99020       -1.83834       -3.19525
H          0.98838       -1.17292       -4.20748
H          0.65490        0.47795       -4.58321
H          2.40594        0.67658       -6.19146
H          3.17771       -0.83339       -5.73132
H          1.42623       -2.73835       -5.62223
H          0.48961       -2.78939       -7.11487
H          3.54720       -2.68556       -6.98891
H          2.55831       -4.09907       -7.40051
H          2.59042       -2.67285       -8.46548

--Link1--
%chk=JID_1073.chk
%mem=8GB
%nprocshared=4
# B3LYP/6-311++G(d,p) empiricaldispersion=gd3bj scf=xqc pop=npa geom=check

CID_154087121_JID_1073_Energie_neutraal

0 1

--Link1--
%chk=JID_1073.chk
%mem=8GB
%nprocshared=4
# B3LYP/6-311++G(d,p) empiricaldispersion=gd3bj scf=xqc pop=npa geom=check

CID_154087121_JID_1073_Energie_kation

1 2

--Link1--
%chk=JID_1073.chk
%mem=8GB
%nprocshared=4
# B3LYP/6-311++G(d,p) empiricaldispersion=gd3bj scf=xqc pop=npa geom=check

CID_154087121_JID_1073_Energie_anion

-1 2
