%chk=JID_7747.chk
%mem=8GB
%nprocshared=4
# opt freq B3LYP/6-31G(d) empiricaldispersion=gd3bj scf=xqc

CID_113860593_JID_7747_neutraal

0 1
C          1.04223        0.05878        0.06900
C          0.36556       -1.04940       -0.72743
C          0.96509       -2.43688       -0.47537
N          0.72423       -2.87696        0.89675
C          1.25342       -4.21751        1.19180
C          2.80622       -4.28030        1.16882
C          3.58682       -3.24847        2.00427
C          3.39625       -3.35738        3.51343
O          4.98626       -3.25969        1.66396
C          5.70219       -4.44759        1.96933
C          0.64190       -4.81626        2.47075
C         -0.11575       -4.11437        3.34063
C         -0.71580       -4.62004        4.61827
C         -1.70415       -5.76707        4.44026
C         -1.03825       -7.10639        4.14288
C         -0.33371       -7.17279        2.79156
C          0.91537       -6.29477        2.68523
H          0.86904       -0.05217        1.14347
H          0.64239        1.03282       -0.23096
H          2.12224        0.06704       -0.10899
H         -0.70831       -1.05566       -0.50467
H          0.46381       -0.81916       -1.79526
H          0.50060       -3.14264       -1.17388
H          2.03637       -2.40080       -0.69994
H          1.11040       -2.20497        1.55408
H          0.89762       -4.87753        0.38681
H          3.13258       -5.28587        1.45720
H          3.14198       -4.18614        0.12678
H          3.26100       -2.24521        1.70970
H          3.50026       -4.39115        3.85834
H          4.14925       -2.76199        4.04126
H          2.41290       -2.99198        3.81727
H          5.65140       -4.68478        3.03481
H          5.34304       -5.28949        1.37256
H          6.75219       -4.28117        1.71180
H         -0.31983       -3.06369        3.14424
H         -1.25167       -3.78242        5.08335
H          0.08072       -4.89224        5.32116
H         -2.43332       -5.52758        3.65626
H         -2.27339       -5.87471        5.37219
H         -0.33125       -7.35679        4.94344
H         -1.81306       -7.88300        4.16200
H         -0.02570       -8.21429        2.63227
H         -1.03895       -6.93293        1.98610
H          1.48738       -6.68396        1.83427
H          1.56121       -6.42523        3.56239

--Link1--
%chk=JID_7747.chk
%mem=8GB
%nprocshared=4
# B3LYP/6-311++G(d,p) empiricaldispersion=gd3bj scf=xqc pop=npa geom=check

CID_113860593_JID_7747_Energie_neutraal

0 1

--Link1--
%chk=JID_7747.chk
%mem=8GB
%nprocshared=4
# B3LYP/6-311++G(d,p) empiricaldispersion=gd3bj scf=xqc pop=npa geom=check

CID_113860593_JID_7747_Energie_kation

1 2

--Link1--
%chk=JID_7747.chk
%mem=8GB
%nprocshared=4
# B3LYP/6-311++G(d,p) empiricaldispersion=gd3bj scf=xqc pop=npa geom=check

CID_113860593_JID_7747_Energie_anion

-1 2
