%chk=JID_6644.chk
%mem=8GB
%nprocshared=4
# opt freq B3LYP/6-31G(d) empiricaldispersion=gd3bj scf=xqc

CID_105062195_JID_6644_neutraal

0 1
C          1.03079       -0.08558       -0.04158
O          0.95445       -0.83821        1.15837
C          1.52244       -2.14713        1.06034
C          0.66024       -3.14124        0.26036
N          1.01806       -3.15824       -1.16525
C          0.27520       -4.18062       -1.92242
C         -1.24184       -3.94620       -2.05744
N         -1.65513       -2.62836       -2.54269
C         -3.00613       -2.29370       -2.45916
O         -3.87819       -3.01274       -1.97850
C         -3.38764       -0.96697       -2.99557
C         -2.48135       -0.16806       -3.56050
C         -1.11896       -0.69136       -3.60985
N         -0.70798       -1.82563       -3.15375
O         -0.31279        0.21415       -4.21177
C          1.06625       -0.15421       -4.32841
H          0.86340        0.96635        0.20674
H          0.23968       -0.39150       -0.72902
H          2.01349       -0.17679       -0.51373
H          2.55176       -2.09182        0.68538
H          1.58839       -2.51554        2.09055
H          0.83914       -4.14293        0.66829
H         -0.39812       -2.89338        0.39373
H          0.74845       -2.26414       -1.58565
H          0.70997       -4.20849       -2.92916
H          0.45677       -5.17191       -1.49027
H         -1.65859       -4.68584       -2.75215
H         -1.73084       -4.11893       -1.09108
H         -4.43064       -0.69246       -2.90646
H         -2.70889        0.80559       -3.96840
H          1.51168       -0.28487       -3.33733
H          1.17160       -1.06347       -4.92805
H          1.58982        0.65959       -4.83758

--Link1--
%chk=JID_6644.chk
%mem=8GB
%nprocshared=4
# B3LYP/6-311++G(d,p) empiricaldispersion=gd3bj scf=xqc pop=npa geom=check

CID_105062195_JID_6644_Energie_neutraal

0 1

--Link1--
%chk=JID_6644.chk
%mem=8GB
%nprocshared=4
# B3LYP/6-311++G(d,p) empiricaldispersion=gd3bj scf=xqc pop=npa geom=check

CID_105062195_JID_6644_Energie_kation

1 2

--Link1--
%chk=JID_6644.chk
%mem=8GB
%nprocshared=4
# B3LYP/6-311++G(d,p) empiricaldispersion=gd3bj scf=xqc pop=npa geom=check

CID_105062195_JID_6644_Energie_anion

-1 2
