%chk=JID_6684.chk
%mem=8GB
%nprocshared=4
# opt freq B3LYP/6-31G(d) empiricaldispersion=gd3bj scf=xqc

CID_10513289_JID_6684_neutraal

0 1
C          1.06743       -0.05096        0.05345
C          0.92341        1.44186        0.30693
C          1.25236        2.30557       -0.91358
C          0.42479        2.01575       -2.16957
C         -1.09296        2.10960       -1.99085
C         -1.61914        3.48206       -1.55883
C         -1.31717        4.64103       -2.51842
C         -1.81648        4.45835       -3.95460
C         -3.30354        4.41633       -4.05038
N         -4.11264        5.44213       -4.21679
C         -5.37992        4.91938       -4.24345
C         -5.34794        3.55143       -4.09979
N         -4.01583        3.24598       -3.98427
C         -6.41338        2.51278       -4.04345
C         -6.63212        1.79372       -5.38195
N         -5.44169        1.07061       -5.84646
H          0.32775       -0.41152       -0.66711
H          0.91785       -0.60553        0.98547
H          2.06608       -0.28992       -0.32560
H         -0.09055        1.65522        0.66252
H          1.60085        1.72503        1.12170
H          1.14031        3.36055       -0.63690
H          2.31236        2.17139       -1.16421
H          0.74461        2.70018       -2.96412
H          0.66793        1.01075       -2.53538
H         -1.56768        1.81165       -2.93194
H         -1.42194        1.36632       -1.25530
H         -2.70351        3.40632       -1.41401
H         -1.21138        3.73465       -0.57279
H         -1.75564        5.55522       -2.09716
H         -0.23417        4.81068       -2.54525
H         -1.46142        5.30660       -4.55346
H         -1.37839        3.56406       -4.41096
H         -6.24567        5.55824       -4.36066
H         -3.63245        2.31656       -3.87416
H         -6.16892        1.77847       -3.26501
H         -7.35672        2.98272       -3.73891
H         -7.44839        1.07281       -5.26173
H         -6.93872        2.50853       -6.15429
H         -5.69759        0.52044       -6.66734
H         -4.77137        1.75982       -6.19235

--Link1--
%chk=JID_6684.chk
%mem=8GB
%nprocshared=4
# B3LYP/6-311++G(d,p) empiricaldispersion=gd3bj scf=xqc pop=npa geom=check

CID_10513289_JID_6684_Energie_neutraal

0 1

--Link1--
%chk=JID_6684.chk
%mem=8GB
%nprocshared=4
# B3LYP/6-311++G(d,p) empiricaldispersion=gd3bj scf=xqc pop=npa geom=check

CID_10513289_JID_6684_Energie_kation

1 2

--Link1--
%chk=JID_6684.chk
%mem=8GB
%nprocshared=4
# B3LYP/6-311++G(d,p) empiricaldispersion=gd3bj scf=xqc pop=npa geom=check

CID_10513289_JID_6684_Energie_anion

-1 2
