%chk=JID_7955.chk
%mem=8GB
%nprocshared=4
# opt freq B3LYP/6-31G(d) empiricaldispersion=gd3bj scf=xqc

CID_112525078_JID_7955_neutraal

0 1
C          1.67000        1.26900        0.16200
C          2.29512       -0.08247       -0.21182
C          1.29387       -1.20790        0.08549
C          0.34589       -0.53303        1.02807
C         -0.66546       -1.12409        1.76769
C         -1.46823       -0.30762        2.56662
C         -1.25701        1.07885        2.61058
C         -0.24039        1.66764        1.85595
C          0.55638        0.84973        1.07151
C          2.92354       -0.13413       -1.58702
O          4.15121       -0.29917       -1.66203
N          2.27932       -0.01886       -2.77348
C          0.97559        0.17517       -3.17772
C         -0.19477        0.34696       -2.48582
N         -1.18876        0.49587       -3.41558
N         -0.74757        0.43549       -4.67947
C          0.56464        0.24203       -4.53605
H          2.39467        1.89290        0.69664
H          1.29575        1.83388       -0.69474
H          3.13098       -0.23182        0.49246
H          0.77716       -1.58647       -0.79901
H          1.79642       -2.04872        0.57622
H         -0.83418       -2.19581        1.73072
H         -2.26539       -0.74896        3.16010
H         -1.89238        1.69956        3.23788
H         -0.08265        2.74122        1.88704
H          2.94596       -0.10064       -3.53518
H         -0.45878        0.38483       -1.44456
H         -2.18055        0.64147       -3.25452
H          1.17414        0.15519       -5.42651

--Link1--
%chk=JID_7955.chk
%mem=8GB
%nprocshared=4
# B3LYP/6-311++G(d,p) empiricaldispersion=gd3bj scf=xqc pop=npa geom=check

CID_112525078_JID_7955_Energie_neutraal

0 1

--Link1--
%chk=JID_7955.chk
%mem=8GB
%nprocshared=4
# B3LYP/6-311++G(d,p) empiricaldispersion=gd3bj scf=xqc pop=npa geom=check

CID_112525078_JID_7955_Energie_kation

1 2

--Link1--
%chk=JID_7955.chk
%mem=8GB
%nprocshared=4
# B3LYP/6-311++G(d,p) empiricaldispersion=gd3bj scf=xqc pop=npa geom=check

CID_112525078_JID_7955_Energie_anion

-1 2
