%chk=JID_7374.chk
%mem=8GB
%nprocshared=4
# opt freq B3LYP/6-31G(d) empiricaldispersion=gd3bj scf=xqc

CID_114742755_JID_7374_neutraal

0 1
C          0.94633       -0.07862        0.03063
C          0.28031       -0.65592       -1.22038
C          0.88613       -2.03170       -1.53548
C         -1.23463       -0.70736       -1.06893
N         -1.76116       -1.90369       -0.71568
C         -3.09661       -1.99787       -0.58440
N         -3.94594       -0.97205       -0.73619
C         -3.40594        0.22447       -1.05254
C         -2.04115        0.41065       -1.26409
C         -1.51857        1.77974       -1.60955
C         -2.61102        2.73077       -2.11635
N         -3.76957        2.70767       -1.22500
C         -4.38142        1.36884       -1.24900
C         -3.66797       -3.34752       -0.24679
C         -3.70557       -3.57775        1.26204
O         -5.03334       -3.56933        1.80076
C         -5.61151       -2.27170        1.85528
H          0.72623       -0.68837        0.91445
H          0.60370        0.93857        0.24112
H          2.03428       -0.04077       -0.09095
H          0.52524       -0.01736       -2.07655
H          0.75258       -2.73469       -0.70502
H          0.42400       -2.47076       -2.42664
H          1.96155       -1.94491       -1.72515
H         -0.74833        1.71457       -2.38463
H         -1.06293        2.21213       -0.71076
H         -2.91192        2.46236       -3.13720
H         -2.20706        3.74825       -2.16036
H         -4.46277        3.38509       -1.53931
H         -5.13873        1.32559       -0.45811
H         -4.89579        1.21778       -2.20616
H         -4.66141       -3.45502       -0.69669
H         -3.02198       -4.10273       -0.71149
H         -3.32713       -4.58715        1.46027
H         -3.06847       -2.88777        1.82833
H         -4.93313       -1.55685        2.33027
H         -5.88950       -1.93326        0.85450
H         -6.52495       -2.33303        2.45361

--Link1--
%chk=JID_7374.chk
%mem=8GB
%nprocshared=4
# B3LYP/6-311++G(d,p) empiricaldispersion=gd3bj scf=xqc pop=npa geom=check

CID_114742755_JID_7374_Energie_neutraal

0 1

--Link1--
%chk=JID_7374.chk
%mem=8GB
%nprocshared=4
# B3LYP/6-311++G(d,p) empiricaldispersion=gd3bj scf=xqc pop=npa geom=check

CID_114742755_JID_7374_Energie_kation

1 2

--Link1--
%chk=JID_7374.chk
%mem=8GB
%nprocshared=4
# B3LYP/6-311++G(d,p) empiricaldispersion=gd3bj scf=xqc pop=npa geom=check

CID_114742755_JID_7374_Energie_anion

-1 2
