%chk=JID_8881.chk
%mem=8GB
%nprocshared=4
# opt freq B3LYP/6-31G(d) empiricaldispersion=gd3bj scf=xqc

CID_115210540_JID_8881_neutraal

0 1
C          1.05963        0.07241        0.03466
C          0.30457        0.24037       -1.27744
C          1.03602       -0.37587       -2.48668
C          1.16199       -1.90039       -2.38417
C          0.35530        0.04269       -3.78088
C          0.96552        0.98831       -4.61225
C          0.34996        1.40860       -5.79896
C         -0.87841        0.88445       -6.20959
C         -1.49911       -0.03488       -5.35341
C         -0.89386       -0.45748       -4.16231
N         -1.56904        1.31592       -7.33852
C         -0.95497        2.12475       -8.38198
C          0.04019        1.34878       -9.25436
C         -0.59894        0.66992      -10.48545
C         -1.30821       -0.64477      -10.16123
C         -0.28279       -1.74175      -10.43535
N          0.91336       -1.06399      -10.93163
C          0.46094        0.20750      -11.48453
H          1.12650       -0.97940        0.32724
H          0.54003        0.60638        0.83686
H          2.07339        0.47810       -0.04020
H         -0.69683       -0.19528       -1.17147
H          0.15855        1.31489       -1.44896
H          2.06015        0.02188       -2.50028
H          0.18979       -2.38220       -2.23493
H          1.60726       -2.31878       -3.29401
H          1.80561       -2.18549       -1.54585
H          1.92633        1.42064       -4.34235
H          0.86493        2.15630       -6.39319
H         -2.47926       -0.43232       -5.60477
H         -1.42036       -1.17139       -3.53409
H         -2.26634        0.65749       -7.66723
H         -1.75425        2.54050       -9.00658
H         -0.45992        2.99509       -7.93560
H          0.76750        2.08292       -9.62595
H          0.60999        0.62377       -8.66190
H         -1.28542        1.37400      -10.97001
H         -2.16173       -0.77240      -10.83895
H         -1.69018       -0.70239       -9.14134
H         -0.04807       -2.30504       -9.52711
H         -0.67003       -2.44470      -11.18144
H          1.38702       -1.62685      -11.63549
H          0.01449        0.05042      -12.47412
H          1.28855        0.91489      -11.59156

--Link1--
%chk=JID_8881.chk
%mem=8GB
%nprocshared=4
# B3LYP/6-311++G(d,p) empiricaldispersion=gd3bj scf=xqc pop=npa geom=check

CID_115210540_JID_8881_Energie_neutraal

0 1

--Link1--
%chk=JID_8881.chk
%mem=8GB
%nprocshared=4
# B3LYP/6-311++G(d,p) empiricaldispersion=gd3bj scf=xqc pop=npa geom=check

CID_115210540_JID_8881_Energie_kation

1 2

--Link1--
%chk=JID_8881.chk
%mem=8GB
%nprocshared=4
# B3LYP/6-311++G(d,p) empiricaldispersion=gd3bj scf=xqc pop=npa geom=check

CID_115210540_JID_8881_Energie_anion

-1 2
