%chk=JID_8213.chk
%mem=8GB
%nprocshared=4
# opt=(cartesian,calcfc) freq B3LYP/6-31G(d) empiricaldispersion=gd3bj scf=xqc

CID_151092101_JID_8213_neutraal

0 1
C          1.04968       -0.07889        0.03617
C          0.44047        0.55084       -1.20866
C          1.19310        0.24270       -2.51063
C          0.94320       -1.13266       -3.22341
C         -0.21874       -1.97547       -2.64280
C         -0.30553       -3.33507       -3.33343
C          1.02074       -4.06695       -3.22983
O          2.09125       -3.30559       -3.77116
C          2.28162       -2.03091       -3.13626
O          3.41261       -1.36322       -3.71948
C          3.39162       -1.23804       -5.13536
C          4.81694       -1.38741       -5.63535
O          2.54806       -2.23893       -1.73176
C          3.89343       -2.55268       -1.38496
C          4.37838       -3.89095       -1.91138
O          0.67249       -0.86097       -4.63433
C         -0.57214       -0.25065       -4.96484
C         -0.45434        0.31919       -6.36587
H          0.96555       -1.16681        0.03613
H          0.53349        0.28846        0.92929
H          2.10802        0.18470        0.13018
H         -0.61965        0.29127       -1.29029
H          0.46832        1.63875       -1.06273
H          0.95939        1.05561       -3.20948
H          2.26524        0.37893       -2.32031
H         -0.07958       -2.15390       -1.57302
H         -1.18176       -1.46535       -2.74898
H         -1.10104       -3.93570       -2.87926
H         -0.56312       -3.19918       -4.38961
H          1.24016       -4.33837       -2.19128
H          0.96623       -5.00269       -3.79595
H          2.76662       -1.99258       -5.62305
H          3.01978       -0.24189       -5.39481
H          5.21129       -2.37478       -5.37130
H          4.86438       -1.26977       -6.72151
H          5.47373       -0.64670       -5.16795
H          4.56844       -1.74115       -1.67823
H          3.92226       -2.58622       -0.29020
H          4.48159       -3.87956       -3.00009
H          5.35683       -4.13495       -1.48662
H          3.67569       -4.68892       -1.65370
H         -1.36463       -1.00482       -4.95554
H         -0.83644        0.54637       -4.26427
H         -0.19084       -0.46656       -7.08170
H         -1.39437        0.78181       -6.67947
H          0.34120        1.07040       -6.40967

--Link1--
%chk=JID_8213.chk
%mem=8GB
%nprocshared=4
# B3LYP/6-311++G(d,p) empiricaldispersion=gd3bj scf=xqc pop=npa geom=check

CID_151092101_JID_8213_Energie_neutraal

0 1

--Link1--
%chk=JID_8213.chk
%mem=8GB
%nprocshared=4
# B3LYP/6-311++G(d,p) empiricaldispersion=gd3bj scf=xqc pop=npa geom=check

CID_151092101_JID_8213_Energie_kation

1 2

--Link1--
%chk=JID_8213.chk
%mem=8GB
%nprocshared=4
# B3LYP/6-311++G(d,p) empiricaldispersion=gd3bj scf=xqc pop=npa geom=check

CID_151092101_JID_8213_Energie_anion

-1 2
