%chk=JID_7203.chk
%mem=8GB
%nprocshared=4
# opt freq B3LYP/6-31G(d) empiricaldispersion=gd3bj scf=xqc

CID_104590604_JID_7203_neutraal

0 1
C          1.34400       -0.22500        0.03600
C          0.62876        0.96221        0.15723
C         -0.75818        0.92619        0.31229
C         -1.44542       -0.29398        0.33708
C         -0.71237       -1.48071        0.24956
C          0.67594       -1.44620        0.08969
S         -3.21284       -0.23954        0.56526
C         -3.83029       -1.57635       -0.52074
C         -4.13667       -1.12642       -1.95006
S         -2.78584       -1.44623       -3.14273
C         -1.82553        0.05947       -3.16838
C         -0.45699       -0.06958       -3.45085
C          0.36978        1.05356       -3.53773
C         -0.16645        2.32245       -3.34502
C         -1.52252        2.45635       -3.07796
C         -2.35871        1.34116       -3.00090
O         -2.00682        3.71991       -2.89717
H          2.42308       -0.19916       -0.08973
H          1.14451        1.91795        0.12186
H         -1.29916        1.86579        0.39909
H         -1.19717       -2.44884        0.31798
H          1.23562       -2.37477        0.01346
H         -3.20987       -2.47548       -0.48495
H         -4.78482       -1.86518       -0.06389
H         -4.95588       -1.75942       -2.31292
H         -4.52321       -0.10597       -1.99821
H         -0.01746       -1.05379       -3.60076
H          1.42850        0.93418       -3.74873
H          0.46822        3.20176       -3.40435
H         -3.41679        1.48368       -2.82671
H         -2.95386        3.66436       -2.69073

--Link1--
%chk=JID_7203.chk
%mem=8GB
%nprocshared=4
# B3LYP/6-311++G(d,p) empiricaldispersion=gd3bj scf=xqc pop=npa geom=check

CID_104590604_JID_7203_Energie_neutraal

0 1

--Link1--
%chk=JID_7203.chk
%mem=8GB
%nprocshared=4
# B3LYP/6-311++G(d,p) empiricaldispersion=gd3bj scf=xqc pop=npa geom=check

CID_104590604_JID_7203_Energie_kation

1 2

--Link1--
%chk=JID_7203.chk
%mem=8GB
%nprocshared=4
# B3LYP/6-311++G(d,p) empiricaldispersion=gd3bj scf=xqc pop=npa geom=check

CID_104590604_JID_7203_Energie_anion

-1 2
