%chk=JID_4767.chk
%mem=8GB
%nprocshared=4
# opt freq B3LYP/6-31G(d) empiricaldispersion=gd3bj scf=xqc

CID_55271274_JID_4767_neutraal

0 1
C          0.93559        0.06939       -0.03218
C          0.78369       -1.43442        0.18051
C          1.38346       -1.93417        1.53216
C          0.74065       -1.29541        2.74841
C         -0.55421       -1.61768        3.16603
N         -1.22071       -1.07616        4.21418
C         -0.49628       -0.15371        4.87042
C          0.79568        0.26860        4.58401
C          1.43868       -0.32387        3.48520
C          1.13005        1.25613        5.54966
C          0.04465        1.40418        6.38871
N         -0.93350        0.54002        5.96509
N          1.32031       -3.40223        1.59909
O         -0.59711       -1.80543        0.05247
H          0.34297        0.64304        0.68794
H          0.56474        0.34700       -1.02499
H          1.98257        0.37728        0.04566
H          1.31158       -1.94287       -0.63598
H          2.45073       -1.67844        1.53415
H         -1.13241       -2.37060        2.63240
H          2.44774       -0.02618        3.21769
H          2.06245        1.80036        5.62403
H         -0.11578        2.04425        7.24594
H         -1.84586        0.41362        6.37788
H          1.45022       -3.71332        2.55981
H          0.39079       -3.70085        1.29945
H         -1.13406       -1.09775        0.45099

--Link1--
%chk=JID_4767.chk
%mem=8GB
%nprocshared=4
# B3LYP/6-311++G(d,p) empiricaldispersion=gd3bj scf=xqc pop=npa geom=check

CID_55271274_JID_4767_Energie_neutraal

0 1

--Link1--
%chk=JID_4767.chk
%mem=8GB
%nprocshared=4
# B3LYP/6-311++G(d,p) empiricaldispersion=gd3bj scf=xqc pop=npa geom=check

CID_55271274_JID_4767_Energie_kation

1 2

--Link1--
%chk=JID_4767.chk
%mem=8GB
%nprocshared=4
# B3LYP/6-311++G(d,p) empiricaldispersion=gd3bj scf=xqc pop=npa geom=check

CID_55271274_JID_4767_Energie_anion

-1 2
