%chk=JID_3285.chk
%mem=8GB
%nprocshared=4
# opt freq B3LYP/6-31G(d) empiricaldispersion=gd3bj scf=xqc

CID_62855294_JID_3285_neutraal

0 1
C          1.01233       -0.08957       -0.04273
C          0.16578       -1.29144        0.35968
C          0.66592       -1.99280        1.64737
C          0.73203       -1.06427        2.90275
N         -0.47169       -0.26627        3.17022
C         -0.28000        0.60533        4.32069
N         -0.03365       -3.28251        1.82560
C          0.74419       -4.28334        2.53620
C         -1.47402       -3.23094        2.11060
C         -1.94431       -3.90388        3.40124
C         -1.68417       -3.23064        4.77874
C         -3.07481       -3.74096        5.20736
C         -3.45723       -3.71763        3.71392
H          0.94579        0.71832        0.69119
H          0.66625        0.30671       -1.00288
H          2.06442       -0.37035       -0.15387
H         -0.87760       -0.97169        0.45664
H          0.19205       -2.01067       -0.46974
H          1.71418       -2.24522        1.42824
H          0.97088       -1.67320        3.78307
H          1.58261       -0.38354        2.76541
H         -0.70124        0.29778        2.35412
H          0.52785        1.32412        4.14956
H         -1.19898        1.16975        4.50654
H         -0.06057        0.02764        5.22433
H          0.85166       -4.05460        3.60045
H          0.29797       -5.27770        2.42867
H          1.75105       -4.36930        2.11143
H         -1.85790       -2.20695        2.07451
H         -1.96682       -3.74311        1.27407
H         -1.69204       -4.97472        3.41255
H         -0.84252       -3.62446        5.35361
H         -1.62238       -2.13951        4.75666
H         -3.64778       -3.07476        5.85679
H         -3.06197       -4.74557        5.64543
H         -3.87854       -2.75986        3.38590
H         -4.11395       -4.52566        3.38112

--Link1--
%chk=JID_3285.chk
%mem=8GB
%nprocshared=4
# B3LYP/6-311++G(d,p) empiricaldispersion=gd3bj scf=xqc pop=npa geom=check

CID_62855294_JID_3285_Energie_neutraal

0 1

--Link1--
%chk=JID_3285.chk
%mem=8GB
%nprocshared=4
# B3LYP/6-311++G(d,p) empiricaldispersion=gd3bj scf=xqc pop=npa geom=check

CID_62855294_JID_3285_Energie_kation

1 2

--Link1--
%chk=JID_3285.chk
%mem=8GB
%nprocshared=4
# B3LYP/6-311++G(d,p) empiricaldispersion=gd3bj scf=xqc pop=npa geom=check

CID_62855294_JID_3285_Energie_anion

-1 2
