%chk=JID_2897.chk
%mem=8GB
%nprocshared=4
# opt freq B3LYP/6-31G(d) empiricaldispersion=gd3bj scf=xqc

CID_130697793_JID_2897_neutraal

0 1
C          0.90847        0.03000        0.02686
C          0.79487        0.97304       -1.18824
C          0.83108        2.46023       -0.78687
C          1.20715        3.48243       -1.86031
C          1.47878        4.72440       -1.02914
N          2.22426        4.21692        0.12393
C          1.73366        2.85140        0.39062
O         -0.55672        2.71670       -0.42717
C         -1.33890        1.82101       -1.09776
O         -2.55596        1.82910       -1.11447
N         -0.54599        0.88638       -1.70545
C          1.81849        0.55570       -2.24207
H          0.66151       -1.00029       -0.25680
H          0.21873        0.31226        0.83067
H          1.92309        0.02190        0.43822
H          0.40934        3.66526       -2.58711
H          2.12193        3.20029       -2.39333
H          0.54183        5.19041       -0.70181
H          2.06041        5.46786       -1.58154
H          2.06553        4.81710        0.93341
H          2.61545        2.20796        0.46034
H          1.19432        2.82406        1.34353
H         -0.98903        0.04326       -2.04754
H          2.84086        0.73862       -1.89484
H          1.72745       -0.51179       -2.47554
H          1.67252        1.09033       -3.18704

--Link1--
%chk=JID_2897.chk
%mem=8GB
%nprocshared=4
# B3LYP/6-311++G(d,p) empiricaldispersion=gd3bj scf=xqc pop=npa geom=check

CID_130697793_JID_2897_Energie_neutraal

0 1

--Link1--
%chk=JID_2897.chk
%mem=8GB
%nprocshared=4
# B3LYP/6-311++G(d,p) empiricaldispersion=gd3bj scf=xqc pop=npa geom=check

CID_130697793_JID_2897_Energie_kation

1 2

--Link1--
%chk=JID_2897.chk
%mem=8GB
%nprocshared=4
# B3LYP/6-311++G(d,p) empiricaldispersion=gd3bj scf=xqc pop=npa geom=check

CID_130697793_JID_2897_Energie_anion

-1 2
