%chk=JID_10005.chk
%mem=8GB
%nprocshared=4
# opt freq B3LYP/6-31G(d) empiricaldispersion=gd3bj scf=xqc

CID_62054019_JID_10005_neutraal

0 1
C          1.08842        0.00886       -0.04586
C          0.50336        0.45777       -1.38240
C          1.19057       -0.20990       -2.57426
C         -0.99586        0.31622       -1.42973
C         -1.86296       -0.77695       -1.51059
N         -3.14813       -0.30965       -1.64827
N         -3.12455        1.00726       -1.62487
N         -1.86203        1.39944       -1.41895
C         -1.55968        2.82276       -1.36102
C         -1.30689        3.42961       -2.73599
C         -2.50977        3.63236       -0.48412
O         -2.21008        3.88222        0.68908
N         -3.62121        4.23162       -1.01980
C         -4.74770        3.47160       -1.04585
O         -5.38685        3.24258       -0.02233
N         -5.27561        3.15475       -2.25154
C         -4.80230        3.48148       -3.57106
C         -1.62587       -2.21201       -1.50141
O         -2.46043       -3.07435       -1.74343
O         -0.37433       -2.60505       -1.17586
H          0.95907       -1.06016        0.13589
H          0.61480        0.54375        0.78519
H          2.16277        0.22012       -0.00755
H          0.76336        1.51729       -1.47818
H          1.10676       -1.29826       -2.56081
H          0.76258        0.14421       -3.51905
H          2.25908        0.03276       -2.58253
H         -0.60954        2.89906       -0.81626
H         -2.10686        3.19709       -3.44004
H         -1.20472        4.51825       -2.67889
H         -0.38379        3.02823       -3.16920
H         -3.85338        4.86858       -0.26099
H         -6.08488        2.54920       -2.17539
H         -4.26530        2.61757       -3.96911
H         -5.67044        3.68053       -4.20435
H         -4.15434        4.35989       -3.55391
H         -0.44873       -3.58135       -1.20569

--Link1--
%chk=JID_10005.chk
%mem=8GB
%nprocshared=4
# B3LYP/6-311++G(d,p) empiricaldispersion=gd3bj scf=xqc pop=npa geom=check

CID_62054019_JID_10005_Energie_neutraal

0 1

--Link1--
%chk=JID_10005.chk
%mem=8GB
%nprocshared=4
# B3LYP/6-311++G(d,p) empiricaldispersion=gd3bj scf=xqc pop=npa geom=check

CID_62054019_JID_10005_Energie_kation

1 2

--Link1--
%chk=JID_10005.chk
%mem=8GB
%nprocshared=4
# B3LYP/6-311++G(d,p) empiricaldispersion=gd3bj scf=xqc pop=npa geom=check

CID_62054019_JID_10005_Energie_anion

-1 2
