%chk=JID_7440.chk
%mem=8GB
%nprocshared=4
# opt freq B3LYP/6-31G(d) empiricaldispersion=gd3bj scf=xqc

CID_103551233_JID_7440_neutraal

0 1
C         -2.24300       -0.04000       -0.00500
C         -0.78391        0.16629       -0.02654
N          0.09803       -0.82706        0.13561
O          1.32881       -0.17809       -0.00003
C          1.05245        1.13982       -0.23694
N         -0.22996        1.40010       -0.23889
N          2.12573        1.95024       -0.43239
C          2.10746        3.28636       -0.68585
O          3.19532        3.86719       -0.74497
C          0.79545        4.03192       -0.90062
C          0.97777        5.54954       -0.99085
C         -0.32828        6.04255       -1.60531
C         -0.83953        4.88079       -2.46674
C          0.14255        3.72710       -2.24915
C         -0.98052        5.21177       -3.93002
O         -1.91725        4.88827       -4.64182
O          0.07472        5.86397       -4.44834
H         -2.70525        0.59607        0.75607
H         -2.67599        0.21647       -0.97672
H         -2.50014       -1.08000        0.21917
H          3.03993        1.53299       -0.33456
H          0.11463        3.82414       -0.06713
H          1.16745        6.00216       -0.01227
H          1.81684        5.81353       -1.64659
H         -0.18712        6.98002       -2.15198
H         -1.05112        6.24340       -0.80477
H         -1.83583        4.59766       -2.10291
H          0.90003        3.68221       -3.04264
H         -0.38154        2.76844       -2.27227
H         -0.15354        5.97105       -5.39562

--Link1--
%chk=JID_7440.chk
%mem=8GB
%nprocshared=4
# B3LYP/6-311++G(d,p) empiricaldispersion=gd3bj scf=xqc pop=npa geom=check

CID_103551233_JID_7440_Energie_neutraal

0 1

--Link1--
%chk=JID_7440.chk
%mem=8GB
%nprocshared=4
# B3LYP/6-311++G(d,p) empiricaldispersion=gd3bj scf=xqc pop=npa geom=check

CID_103551233_JID_7440_Energie_kation

1 2

--Link1--
%chk=JID_7440.chk
%mem=8GB
%nprocshared=4
# B3LYP/6-311++G(d,p) empiricaldispersion=gd3bj scf=xqc pop=npa geom=check

CID_103551233_JID_7440_Energie_anion

-1 2
