%chk=JID_6188.chk
%mem=8GB
%nprocshared=4
# opt freq B3LYP/6-31G(d) empiricaldispersion=gd3bj scf=xqc

CID_64808535_JID_6188_neutraal

0 1
C          2.49200        0.00400       -0.01400
C          1.07555        0.08349       -0.50469
C          0.21703       -1.02030       -0.38367
C         -1.09300       -0.98215       -0.88491
C         -1.52322        0.16825       -1.54892
C         -0.67720        1.27282       -1.67609
C          0.61668        1.23013       -1.15911
S         -2.08792       -2.45622       -0.71821
C         -3.78852       -1.81260       -0.36698
C         -4.12704       -1.58373        1.13750
C         -3.31736       -0.38303        1.71537
O         -3.53003        0.80489        0.95629
C         -5.61803       -1.33892        1.40114
C         -6.58251       -0.81969        0.35731
C         -6.70372       -2.23632        0.84584
N         -3.84349       -2.81080        1.91782
H          2.56310       -0.64215        0.86723
H          3.13835       -0.39666       -0.80087
H          2.86039        0.99303        0.27801
H          0.58153       -1.92557        0.09913
H         -2.51150        0.22523       -1.99430
H         -1.02495        2.16151       -2.19694
H          1.26952        2.09102       -1.28549
H         -3.99402       -0.92031       -0.96211
H         -4.44729       -2.58870       -0.77207
H         -3.61476       -0.17031        2.74903
H         -2.24422       -0.59859        1.72582
H         -2.86110        1.44885        1.24770
H         -5.78288       -0.98663        2.41733
H         -7.33246       -0.10527        0.68035
H         -6.25257       -0.66107       -0.66110
H         -6.43005       -3.04320        0.17731
H         -7.53376       -2.48190        1.49929
H         -2.89633       -3.12216        1.69673
H         -3.86411       -2.60515        2.91378

--Link1--
%chk=JID_6188.chk
%mem=8GB
%nprocshared=4
# B3LYP/6-311++G(d,p) empiricaldispersion=gd3bj scf=xqc pop=npa geom=check

CID_64808535_JID_6188_Energie_neutraal

0 1

--Link1--
%chk=JID_6188.chk
%mem=8GB
%nprocshared=4
# B3LYP/6-311++G(d,p) empiricaldispersion=gd3bj scf=xqc pop=npa geom=check

CID_64808535_JID_6188_Energie_kation

1 2

--Link1--
%chk=JID_6188.chk
%mem=8GB
%nprocshared=4
# B3LYP/6-311++G(d,p) empiricaldispersion=gd3bj scf=xqc pop=npa geom=check

CID_64808535_JID_6188_Energie_anion

-1 2
