%chk=JID_7165.chk
%mem=8GB
%nprocshared=4
# opt freq B3LYP/6-31G(d) empiricaldispersion=gd3bj scf=xqc

CID_79599040_JID_7165_neutraal

0 1
C          0.91336       -0.04815       -0.01319
C          0.45558       -0.39640        1.39430
C          0.92782        0.60219        2.45363
C          0.44799        2.04724        2.26335
C         -1.08489        2.24980        2.21414
C         -1.82128        1.66408        3.44081
C         -1.41801        2.25646        4.78431
C         -1.44638        3.74464        2.03079
C         -1.07957        4.28290        0.67323
C         -1.98613        4.62215       -0.25695
C         -1.64316        5.15437       -1.62453
C         -1.91038        4.13531       -2.74633
N         -3.34161        3.85757       -2.90990
C         -3.59394        2.73638       -3.82985
C         -3.28180        1.36396       -3.20895
O         -3.92141        1.27153       -1.92995
C         -3.50858        0.11228       -1.21996
H          0.44700        0.87539       -0.36912
H          0.63427       -0.84753       -0.70721
H          2.00031        0.07300       -0.05529
H         -0.63560       -0.48841        1.41152
H          0.85280       -1.38532        1.65361
H          0.62246        0.23880        3.44150
H          2.02541        0.60727        2.46603
H          0.86957        2.65501        3.07392
H          0.89892        2.43734        1.34380
H         -1.46889        1.71241        1.33622
H         -2.90088        1.81080        3.30828
H         -1.67539        0.57853        3.47671
H         -1.60861        3.33268        4.82321
H         -2.00030        1.78910        5.58537
H         -0.36055        2.08233        5.00159
H         -2.52321        3.87917        2.19611
H         -0.94009        4.35564        2.78776
H         -0.02009        4.40132        0.45900
H         -3.04665        4.51505       -0.03695
H         -2.21611        6.07261       -1.80232
H         -0.58426        5.43952       -1.66124
H         -1.51981        4.54288       -3.68616
H         -1.34857        3.22082       -2.52500
H         -3.72536        3.56612       -2.00522
H         -4.66426        2.76535       -4.06593
H         -3.05624        2.86795       -4.77540
H         -3.66506        0.56941       -3.85894
H         -2.20022        1.23071       -3.09641
H         -3.73898       -0.79143       -1.79186
H         -2.43688        0.16028       -1.00333
H         -4.05248        0.07735       -0.27223

--Link1--
%chk=JID_7165.chk
%mem=8GB
%nprocshared=4
# B3LYP/6-311++G(d,p) empiricaldispersion=gd3bj scf=xqc pop=npa geom=check

CID_79599040_JID_7165_Energie_neutraal

0 1

--Link1--
%chk=JID_7165.chk
%mem=8GB
%nprocshared=4
# B3LYP/6-311++G(d,p) empiricaldispersion=gd3bj scf=xqc pop=npa geom=check

CID_79599040_JID_7165_Energie_kation

1 2

--Link1--
%chk=JID_7165.chk
%mem=8GB
%nprocshared=4
# B3LYP/6-311++G(d,p) empiricaldispersion=gd3bj scf=xqc pop=npa geom=check

CID_79599040_JID_7165_Energie_anion

-1 2
