%chk=JID_4539.chk
%mem=8GB
%nprocshared=4
# opt freq B3LYP/6-31G(d) empiricaldispersion=gd3bj scf=xqc

CID_14214846_JID_4539_neutraal

0 1
C          1.01949        0.07743        0.06021
C          0.12223       -1.07145       -0.40186
C         -0.43798       -1.89974        0.79326
C          0.40595       -3.13418        1.23593
C          0.67806       -4.09126        0.05034
C          1.04834       -3.29585       -1.14016
C          0.81034       -1.96358       -1.38397
C          1.33645       -1.71692       -2.67646
C          1.86620       -2.91678       -3.12456
O          1.68554       -3.88696       -2.17442
C          2.52793       -3.26212       -4.35656
O          2.97011       -4.36774       -4.65920
C          1.71865       -2.77346        1.94354
O          1.47485       -1.94774        3.07433
H          0.50792        0.69799        0.80336
H          1.28254        0.72478       -0.78433
H          1.95805       -0.27426        0.49606
H         -0.74027       -0.61478       -0.90659
H         -1.41837       -2.29028        0.48222
H         -0.64646       -1.24578        1.64815
H         -0.20249       -3.67782        1.97230
H          1.45697       -4.82029        0.29806
H         -0.23624       -4.65259       -0.17708
H          1.33452       -0.78075       -3.21785
H          2.62844       -2.42628       -5.06983
H          2.20068       -3.68552        2.31237
H          2.43772       -2.27814        1.28557
H          1.35772       -1.03633        2.75910

--Link1--
%chk=JID_4539.chk
%mem=8GB
%nprocshared=4
# B3LYP/6-311++G(d,p) empiricaldispersion=gd3bj scf=xqc pop=npa geom=check

CID_14214846_JID_4539_Energie_neutraal

0 1

--Link1--
%chk=JID_4539.chk
%mem=8GB
%nprocshared=4
# B3LYP/6-311++G(d,p) empiricaldispersion=gd3bj scf=xqc pop=npa geom=check

CID_14214846_JID_4539_Energie_kation

1 2

--Link1--
%chk=JID_4539.chk
%mem=8GB
%nprocshared=4
# B3LYP/6-311++G(d,p) empiricaldispersion=gd3bj scf=xqc pop=npa geom=check

CID_14214846_JID_4539_Energie_anion

-1 2
