%chk=JID_2057.chk
%mem=8GB
%nprocshared=4
# opt freq B3LYP/6-31G(d) empiricaldispersion=gd3bj scf=xqc

CID_131132083_JID_2057_neutraal

0 1
C          1.03105        0.01077       -0.09445
C          1.40298        1.27195        0.62121
C          1.01818        2.53217        0.33893
C          1.54357        3.72257        1.08820
C          0.15613        2.85644       -0.84413
O          0.59712        2.64159       -1.96971
N         -1.05252        3.48947       -0.57742
C         -1.74426        3.36961        0.70061
C         -1.82519        4.11813       -1.66079
C         -1.01426        5.03907       -2.57140
C         -2.58519        3.07556       -2.46444
C         -3.23712        2.18125       -3.15381
H          0.29931        0.17201       -0.89038
H          0.59867       -0.70089        0.61586
H          1.92380       -0.44351       -0.53470
H          2.08097        1.11871        1.45928
H          1.93932        4.46985        0.39202
H          0.75862        4.19234        1.68773
H          2.35756        3.44814        1.76790
H         -2.73157        2.92867        0.52977
H         -1.21739        2.73292        1.41327
H         -1.86433        4.36982        1.12687
H         -2.57629        4.75690       -1.17599
H         -0.33681        4.49059       -3.23280
H         -1.68250        5.61819       -3.21924
H         -0.41911        5.74478       -1.98220
H         -3.75621        1.44419       -3.72137

--Link1--
%chk=JID_2057.chk
%mem=8GB
%nprocshared=4
# B3LYP/6-311++G(d,p) empiricaldispersion=gd3bj scf=xqc pop=npa geom=check

CID_131132083_JID_2057_Energie_neutraal

0 1

--Link1--
%chk=JID_2057.chk
%mem=8GB
%nprocshared=4
# B3LYP/6-311++G(d,p) empiricaldispersion=gd3bj scf=xqc pop=npa geom=check

CID_131132083_JID_2057_Energie_kation

1 2

--Link1--
%chk=JID_2057.chk
%mem=8GB
%nprocshared=4
# B3LYP/6-311++G(d,p) empiricaldispersion=gd3bj scf=xqc pop=npa geom=check

CID_131132083_JID_2057_Energie_anion

-1 2
