%chk=JID_6406.chk
%mem=8GB
%nprocshared=4
# opt freq B3LYP/6-31G(d) empiricaldispersion=gd3bj scf=xqc

CID_115722557_JID_6406_neutraal

0 1
C          1.04985        0.03082        0.08103
C          0.67060       -0.03371        1.56656
C          1.45895        0.96676        2.45411
C          1.21645        2.44969        2.12171
C          2.05086        3.34715        3.03028
O          3.43602        3.02434        2.92768
C          3.70839        1.68492        3.33529
C          2.97552        0.69462        2.43732
N         -0.79248        0.12354        1.61237
C         -1.46367       -0.39822        2.82018
C         -1.76317        0.75814        3.79013
C         -2.79055       -1.12223        2.40835
C         -2.64716       -2.10930        1.23132
O         -1.49799       -2.94550        1.33893
S         -3.63835       -1.92572        3.85681
C         -2.59142       -3.38237        4.11311
H          0.83542        1.01019       -0.35888
H          0.48824       -0.71619       -0.49351
H          2.10939       -0.19118       -0.07457
H          0.92467       -1.04869        1.89931
H          1.14018        0.80118        3.49119
H          1.50566        2.64567        1.08283
H          0.16023        2.71488        2.22821
H          1.92949        4.39320        2.73123
H          1.73161        3.26333        4.07581
H          3.42781        1.55679        4.38727
H          4.78887        1.52674        3.25929
H          3.18538       -0.33019        2.76257
H          3.36394        0.80975        1.41928
H         -1.06397        1.08915        1.42806
H         -0.80726       -1.11629        3.32475
H         -2.47394        1.46930        3.35396
H         -2.18725        0.39336        4.73052
H         -0.86355        1.31627        4.05828
H         -3.50909       -0.35856        2.08246
H         -3.53083       -2.74925        1.13303
H         -2.56143       -1.55787        0.28737
H         -0.74017       -2.36392        1.14547
H         -2.73989       -4.11124        3.31316
H         -1.53688       -3.10966        4.18809
H         -2.88418       -3.85842        5.05332

--Link1--
%chk=JID_6406.chk
%mem=8GB
%nprocshared=4
# B3LYP/6-311++G(d,p) empiricaldispersion=gd3bj scf=xqc pop=npa geom=check

CID_115722557_JID_6406_Energie_neutraal

0 1

--Link1--
%chk=JID_6406.chk
%mem=8GB
%nprocshared=4
# B3LYP/6-311++G(d,p) empiricaldispersion=gd3bj scf=xqc pop=npa geom=check

CID_115722557_JID_6406_Energie_kation

1 2

--Link1--
%chk=JID_6406.chk
%mem=8GB
%nprocshared=4
# B3LYP/6-311++G(d,p) empiricaldispersion=gd3bj scf=xqc pop=npa geom=check

CID_115722557_JID_6406_Energie_anion

-1 2
