%chk=JID_5576.chk
%mem=8GB
%nprocshared=4
# opt freq B3LYP/6-31G(d) empiricaldispersion=gd3bj scf=xqc

CID_81968729_JID_5576_neutraal

0 1
C          1.01961        0.09149       -0.03529
C          0.53366       -1.32174        0.26966
C          0.81035       -1.75725        1.71772
C         -0.01713       -1.01928        2.78936
C         -1.42278       -1.56016        3.01125
O         -1.55962       -2.53521        3.75967
N         -2.50961       -0.98384        2.37547
C         -2.46369        0.13734        1.44911
C         -3.81186       -1.63774        2.52900
C         -4.00772       -2.66460        1.45132
C         -3.50611       -3.95194        1.40073
C         -3.91627       -4.65143        0.23053
C         -4.72501       -3.87939       -0.57229
S         -4.98646       -2.32304        0.08576
N          0.68545       -3.21843        1.79879
H          0.50838        0.84368        0.56906
H          0.83680        0.33009       -1.08804
H          2.09544        0.18041        0.14702
H         -0.53126       -1.41245        0.03303
H          1.05777       -1.99744       -0.41980
H          1.86454       -1.53236        1.92524
H          0.49335       -1.14972        3.75538
H         -0.01586        0.06072        2.63887
H         -2.52072       -0.24033        0.42528
H         -3.31770        0.79493        1.63866
H         -1.56049        0.73202        1.56011
H         -3.87509       -2.12725        3.50825
H         -4.59797       -0.87366        2.51714
H         -2.87394       -4.37079        2.17634
H         -3.63624       -5.67059       -0.00648
H         -5.18038       -4.15587       -1.51331
H          0.74018       -3.50990        2.77799
H         -0.25178       -3.50216        1.50553

--Link1--
%chk=JID_5576.chk
%mem=8GB
%nprocshared=4
# B3LYP/6-311++G(d,p) empiricaldispersion=gd3bj scf=xqc pop=npa geom=check

CID_81968729_JID_5576_Energie_neutraal

0 1

--Link1--
%chk=JID_5576.chk
%mem=8GB
%nprocshared=4
# B3LYP/6-311++G(d,p) empiricaldispersion=gd3bj scf=xqc pop=npa geom=check

CID_81968729_JID_5576_Energie_kation

1 2

--Link1--
%chk=JID_5576.chk
%mem=8GB
%nprocshared=4
# B3LYP/6-311++G(d,p) empiricaldispersion=gd3bj scf=xqc pop=npa geom=check

CID_81968729_JID_5576_Energie_anion

-1 2
