%chk=JID_6909.chk
%mem=8GB
%nprocshared=4
# opt freq B3LYP/6-31G(d) empiricaldispersion=gd3bj scf=xqc

CID_20244863_JID_6909_neutraal

0 1
C          0.93667        0.02332        0.07380
C         -0.06817       -1.09692        0.36374
C          0.33446       -1.81741        1.66000
N         -1.49067       -0.72839        0.45123
C         -2.20029       -0.70390       -0.84240
C         -1.95951        0.53651       -1.73174
C         -1.89064        1.80064       -0.92052
C         -1.81264        1.72811        0.45732
C         -1.81325        0.46109        1.26428
S         -1.73533        3.25443        1.18623
C         -1.77066        4.05251       -0.32593
C         -1.83458        3.16740       -1.39622
C         -1.82863        3.62513       -2.78184
O         -1.73003        4.78784       -3.15682
O         -1.92185        2.64772       -3.71261
N         -1.73114        5.40175       -0.36478
H          0.94354        0.78649        0.85837
H          0.74467        0.50926       -0.88494
H          1.95167       -0.38744        0.01902
H          0.04400       -1.84607       -0.43144
H          0.33144       -1.14559        2.52465
H         -0.34423       -2.65097        1.87342
H          1.34381       -2.23437        1.56909
H         -1.98846       -1.61407       -1.41723
H         -3.27571       -0.75840       -0.62136
H         -1.02466        0.41426       -2.28977
H         -2.77643        0.60086       -2.45919
H         -2.82303        0.32190        1.67276
H         -1.14948        0.54366        2.13198
H         -1.89536        3.14995       -4.55241
H         -1.47148        5.92861        0.46239
H         -1.57681        5.88355       -1.25085

--Link1--
%chk=JID_6909.chk
%mem=8GB
%nprocshared=4
# B3LYP/6-311++G(d,p) empiricaldispersion=gd3bj scf=xqc pop=npa geom=check

CID_20244863_JID_6909_Energie_neutraal

0 1

--Link1--
%chk=JID_6909.chk
%mem=8GB
%nprocshared=4
# B3LYP/6-311++G(d,p) empiricaldispersion=gd3bj scf=xqc pop=npa geom=check

CID_20244863_JID_6909_Energie_kation

1 2

--Link1--
%chk=JID_6909.chk
%mem=8GB
%nprocshared=4
# B3LYP/6-311++G(d,p) empiricaldispersion=gd3bj scf=xqc pop=npa geom=check

CID_20244863_JID_6909_Energie_anion

-1 2
