%chk=JID_7559.chk
%mem=8GB
%nprocshared=4
# opt freq B3LYP/6-31G(d) empiricaldispersion=gd3bj scf=xqc

CID_9075042_JID_7559_neutraal

0 1
C          0.97633       -0.06585       -0.07144
C          0.30924        1.29642        0.01203
C          1.13846        2.43033       -0.59460
C          1.50276        2.28512       -2.07778
C          0.32274        2.08891       -3.04406
C         -0.74394        3.13245       -2.95494
C         -0.64569        4.45256       -3.19595
C         -1.86888        5.24713       -2.84383
C         -2.73956        4.27155       -2.07742
C         -2.13383        2.94170       -2.44305
N         -2.86191        1.89095       -2.26107
N         -2.44523        0.71127       -2.78688
C         -2.92642       -0.51000       -2.37651
O         -2.63407       -1.54705       -2.96399
O         -3.70066       -0.44154       -1.25987
C         -4.14363       -1.70883       -0.78194
C          0.53168        5.18945       -3.74418
H          1.07963       -0.39957       -1.10803
H          0.37497       -0.81170        0.45829
H          1.97032       -0.04495        0.38629
H         -0.67528        1.24567       -0.46056
H          0.12958        1.53118        1.06825
H          0.59855        3.37316       -0.44488
H          2.07134        2.52652       -0.02444
H          2.07748        3.17077       -2.37322
H          2.19068        1.43912       -2.19951
H          0.70649        2.06395       -4.07185
H         -0.06913        1.08836       -2.86233
H         -2.36941        5.59749       -3.75322
H         -1.62765        6.11684       -2.22407
H         -2.66413        4.41513       -0.99428
H         -3.78854        4.33362       -2.38076
H         -1.90532        0.71234       -3.64195
H         -4.79672       -2.18899       -1.51715
H         -3.28965       -2.35145       -0.54385
H         -4.71542       -1.54498        0.13552
H          0.97523        5.82478       -2.97126
H          1.30613        4.51671       -4.12254
H          0.22262        5.82600       -4.57977

--Link1--
%chk=JID_7559.chk
%mem=8GB
%nprocshared=4
# B3LYP/6-311++G(d,p) empiricaldispersion=gd3bj scf=xqc pop=npa geom=check

CID_9075042_JID_7559_Energie_neutraal

0 1

--Link1--
%chk=JID_7559.chk
%mem=8GB
%nprocshared=4
# B3LYP/6-311++G(d,p) empiricaldispersion=gd3bj scf=xqc pop=npa geom=check

CID_9075042_JID_7559_Energie_kation

1 2

--Link1--
%chk=JID_7559.chk
%mem=8GB
%nprocshared=4
# B3LYP/6-311++G(d,p) empiricaldispersion=gd3bj scf=xqc pop=npa geom=check

CID_9075042_JID_7559_Energie_anion

-1 2
