%chk=JID_4446.chk
%mem=8GB
%nprocshared=4
# opt freq B3LYP/6-31G(d) empiricaldispersion=gd3bj scf=xqc

CID_119086333_JID_4446_neutraal

0 1
C          0.92915        0.04928        0.05052
O          0.09815        0.47083       -1.02378
C          0.57310        1.46160       -1.85017
C         -0.35072        1.99254       -2.78949
C         -1.67933        1.52480       -2.86966
C         -2.56860        2.05097       -3.79553
C         -2.10361        3.03926       -4.62961
N         -0.84208        3.51327       -4.58892
C          0.03613        3.01990       -3.68610
C          1.35686        3.48175       -3.60468
C          2.27480        2.94266       -2.68961
C          1.88284        1.93597       -1.81492
C          1.88116        4.56545       -4.47821
O          1.21172        5.33799       -5.14775
H          0.35890       -0.66410        0.65328
H          1.19973        0.89018        0.69771
H          1.81917       -0.46769       -0.32229
H         -2.02703        0.73835       -2.20268
H         -3.59031        1.69687       -3.86129
H         -2.74377        3.49640       -5.37847
H          3.29809        3.30911       -2.64421
H          2.62095        1.54313       -1.12328
H          2.97958        4.67111       -4.47384

--Link1--
%chk=JID_4446.chk
%mem=8GB
%nprocshared=4
# B3LYP/6-311++G(d,p) empiricaldispersion=gd3bj scf=xqc pop=npa geom=check

CID_119086333_JID_4446_Energie_neutraal

0 1

--Link1--
%chk=JID_4446.chk
%mem=8GB
%nprocshared=4
# B3LYP/6-311++G(d,p) empiricaldispersion=gd3bj scf=xqc pop=npa geom=check

CID_119086333_JID_4446_Energie_kation

1 2

--Link1--
%chk=JID_4446.chk
%mem=8GB
%nprocshared=4
# B3LYP/6-311++G(d,p) empiricaldispersion=gd3bj scf=xqc pop=npa geom=check

CID_119086333_JID_4446_Energie_anion

-1 2
