%chk=JID_7762.chk
%mem=8GB
%nprocshared=4
# opt freq B3LYP/6-31G(d) empiricaldispersion=gd3bj scf=xqc

CID_14593445_JID_7762_neutraal

0 1
C          1.06232        0.06969       -0.03549
C          0.74568        1.14692        1.03881
C         -0.77166        1.49688        0.94067
C         -0.78433        2.67087        0.01146
C          0.48054        3.26426       -0.08152
C          1.49195        2.53418        0.79072
S          1.74429        3.54508        2.32731
C          3.53114        3.31373        2.43915
C          4.07998        3.45532        1.03789
S          3.12857        2.36619       -0.04838
C          0.65293        4.41889       -0.84132
C         -0.44754        4.96190       -1.51265
C         -1.71395        4.36020       -1.41488
C         -1.88671        3.20560       -0.64275
C         -2.83508        4.94282       -2.09319
N         -3.74304        5.41598       -2.64034
C          1.02728        0.49106        2.40470
H          0.91744        0.45099       -1.05225
H          0.40372       -0.80002        0.07825
H          2.08863       -0.30261        0.05246
H         -1.18290        1.80573        1.90854
H         -1.36915        0.66779        0.54761
H          3.74840        2.32707        2.86236
H          3.96257        4.06576        3.10611
H          5.13669        3.17374        1.00239
H          3.99985        4.48594        0.67460
H          1.62042        4.90917       -0.90525
H         -0.31532        5.86762       -2.10255
H         -2.86503        2.74187       -0.54374
H          0.51603       -0.47577        2.48502
H          2.09858        0.31070        2.54239
H          0.66889        1.09722        3.24265

--Link1--
%chk=JID_7762.chk
%mem=8GB
%nprocshared=4
# B3LYP/6-311++G(d,p) empiricaldispersion=gd3bj scf=xqc pop=npa geom=check

CID_14593445_JID_7762_Energie_neutraal

0 1

--Link1--
%chk=JID_7762.chk
%mem=8GB
%nprocshared=4
# B3LYP/6-311++G(d,p) empiricaldispersion=gd3bj scf=xqc pop=npa geom=check

CID_14593445_JID_7762_Energie_kation

1 2

--Link1--
%chk=JID_7762.chk
%mem=8GB
%nprocshared=4
# B3LYP/6-311++G(d,p) empiricaldispersion=gd3bj scf=xqc pop=npa geom=check

CID_14593445_JID_7762_Energie_anion

-1 2
