%chk=JID_8231.chk
%mem=8GB
%nprocshared=4
# opt freq B3LYP/6-31G(d) empiricaldispersion=gd3bj scf=xqc

CID_20755662_JID_8231_neutraal

0 1
C          0.66100       -1.30700       -0.00700
C         -0.39618       -1.11674        0.78262
C         -0.38881        0.28803        1.20213
O         -1.16116        0.75557        2.01775
N          0.64826        0.89018        0.56672
C          1.37396       -0.02999       -0.11380
O          2.46011        0.08703       -0.64962
C          1.04417        2.27329        0.78266
C          2.00953        2.41105        1.96003
C          3.43288        2.58819        1.48094
O          3.71449        3.37309        0.57564
N          4.44433        1.93084        2.11039
C          4.38607        0.85050        3.08555
C          4.13202       -0.52002        2.43577
N          5.08535       -0.76712        1.34769
C          4.84282       -2.02880        0.64061
S          6.10468       -2.50092       -0.42205
S          5.54580       -3.43718        1.31542
H          0.98500       -2.21299       -0.48763
H         -1.13692       -1.82852        1.10138
H          1.46266        2.65428       -0.15469
H          0.13302        2.84181        1.00259
H          1.77223        3.32684        2.51577
H          1.89990        1.57744        2.65567
H          5.35262        2.12474        1.70199
H          5.35185        0.84454        3.60295
H          3.61321        1.06843        3.82829
H          4.21642       -1.29527        3.20541
H          3.10940       -0.55191        2.04778
H          4.99933       -0.00451        0.66974
H          3.85016       -2.15249        0.22183

--Link1--
%chk=JID_8231.chk
%mem=8GB
%nprocshared=4
# B3LYP/6-311++G(d,p) empiricaldispersion=gd3bj scf=xqc pop=npa geom=check

CID_20755662_JID_8231_Energie_neutraal

0 1

--Link1--
%chk=JID_8231.chk
%mem=8GB
%nprocshared=4
# B3LYP/6-311++G(d,p) empiricaldispersion=gd3bj scf=xqc pop=npa geom=check

CID_20755662_JID_8231_Energie_kation

1 2

--Link1--
%chk=JID_8231.chk
%mem=8GB
%nprocshared=4
# B3LYP/6-311++G(d,p) empiricaldispersion=gd3bj scf=xqc pop=npa geom=check

CID_20755662_JID_8231_Energie_anion

-1 2
