%chk=JID_3391.chk
%mem=8GB
%nprocshared=4
# opt freq B3LYP/6-31G(d) empiricaldispersion=gd3bj scf=xqc

CID_14625103_JID_3391_neutraal

0 1
C          2.53200        1.02100        0.00000
C          1.20390        0.33267       -0.10689
C          0.03614        1.05754        0.02682
C         -1.14537        0.35437       -0.09152
N         -1.17272       -0.97116       -0.32641
C          0.00936       -1.59716       -0.44548
N          1.20826       -0.99253       -0.36172
S         -0.06421       -3.33692       -0.79669
C          1.49431       -3.92255       -0.05010
C          2.47361       -4.48233       -1.08516
C          2.97952       -3.49858       -2.14137
N          3.67666       -2.36353       -1.54648
C         -2.46236        1.05851        0.03518
H          2.70337        1.64320       -0.88365
H          2.56583        1.65065        0.89485
H          3.34549        0.29290        0.07384
H          0.04584        2.12367        0.21644
H          1.97076       -3.16327        0.57684
H          1.21955       -4.73645        0.63085
H          3.33736       -4.89294       -0.54538
H          2.01069       -5.33574       -1.59773
H          3.67656       -4.02397       -2.80370
H          2.15889       -3.13799       -2.77002
H          4.00266       -1.75152       -2.29358
H          2.98534       -1.80156       -1.03365
H         -2.54279        1.53813        1.01564
H         -2.56116        1.81830       -0.74636
H         -3.29343        0.35331       -0.06799

--Link1--
%chk=JID_3391.chk
%mem=8GB
%nprocshared=4
# B3LYP/6-311++G(d,p) empiricaldispersion=gd3bj scf=xqc pop=npa geom=check

CID_14625103_JID_3391_Energie_neutraal

0 1

--Link1--
%chk=JID_3391.chk
%mem=8GB
%nprocshared=4
# B3LYP/6-311++G(d,p) empiricaldispersion=gd3bj scf=xqc pop=npa geom=check

CID_14625103_JID_3391_Energie_kation

1 2

--Link1--
%chk=JID_3391.chk
%mem=8GB
%nprocshared=4
# B3LYP/6-311++G(d,p) empiricaldispersion=gd3bj scf=xqc pop=npa geom=check

CID_14625103_JID_3391_Energie_anion

-1 2
