%chk=JID_6603.chk
%mem=8GB
%nprocshared=4
# opt freq B3LYP/6-31G(d) empiricaldispersion=gd3bj scf=xqc

CID_81300775_JID_6603_neutraal

0 1
C          2.49600       -0.00700       -0.12600
C          1.16192        0.51692        0.41143
C          0.87934        1.92456       -0.13773
C         -0.40118        2.50425        0.45499
C         -1.59333        1.57777        0.25213
C         -1.30655        0.15887        0.74737
C         -0.02058       -0.46199        0.16065
N         -0.16529       -0.74023       -1.26791
C         -0.40429       -2.12336       -1.70975
C          0.73896       -3.10786       -1.43056
C          0.48023       -4.06738       -0.27584
N         -0.81570       -4.74926       -0.34401
C         -1.93901       -3.80114       -0.38004
C         -1.80950       -2.69639       -1.44629
C         -2.22061       -3.26554        1.02703
C         -0.87448       -5.71515       -1.44111
H          2.49712       -0.07934       -1.21831
H          3.31464        0.66155        0.16197
H          2.71785       -0.99627        0.28710
H          1.27979        0.60722        1.50117
H          1.71527        2.59296        0.10186
H          0.80053        1.90037       -1.23162
H         -0.61009        3.47971        0.00141
H         -0.25668        2.67843        1.52852
H         -1.86628        1.55945       -0.80923
H         -2.46158        1.97995        0.78713
H         -2.17622       -0.46792        0.53137
H         -1.21320        0.18276        1.84121
H          0.20683       -1.37857        0.70802
H         -0.85625       -0.12225       -1.68933
H         -0.37086       -1.99309       -2.80223
H          0.91338       -3.69746       -2.34114
H          1.68228       -2.57684       -1.26163
H          0.56458       -3.53801        0.67858
H          1.28486       -4.81347       -0.24352
H         -2.84996       -4.36504       -0.62915
H         -2.53100       -1.89271       -1.25674
H         -2.14413       -3.13938       -2.39658
H         -3.11009       -2.62659        1.02404
H         -2.42180       -4.09271        1.71808
H         -1.39177       -2.69140        1.44252
H         -0.83498       -5.24680       -2.42983
H         -0.04947       -6.43251       -1.36762
H         -1.79812       -6.30190       -1.38177

--Link1--
%chk=JID_6603.chk
%mem=8GB
%nprocshared=4
# B3LYP/6-311++G(d,p) empiricaldispersion=gd3bj scf=xqc pop=npa geom=check

CID_81300775_JID_6603_Energie_neutraal

0 1

--Link1--
%chk=JID_6603.chk
%mem=8GB
%nprocshared=4
# B3LYP/6-311++G(d,p) empiricaldispersion=gd3bj scf=xqc pop=npa geom=check

CID_81300775_JID_6603_Energie_kation

1 2

--Link1--
%chk=JID_6603.chk
%mem=8GB
%nprocshared=4
# B3LYP/6-311++G(d,p) empiricaldispersion=gd3bj scf=xqc pop=npa geom=check

CID_81300775_JID_6603_Energie_anion

-1 2
