%chk=JID_8921.chk
%mem=8GB
%nprocshared=4
# opt freq B3LYP/6-31G(d) empiricaldispersion=gd3bj scf=xqc

CID_64349505_JID_8921_neutraal

0 1
C          1.04565        0.08877        0.00599
C          0.70573       -0.89046        1.11435
C          1.71968       -1.07267        2.26868
C          2.95318       -1.90405        1.86244
C          4.10949       -1.10048        1.27521
C          4.48654        0.08573        2.15101
C          3.28632        0.97968        2.43438
C          2.13200        0.19113        3.06403
N          0.99885        1.06415        3.34749
C          0.79136        1.88998        4.40959
O         -0.15108        2.68222        4.35880
C          1.65265        1.77843        5.65183
C          0.90402        1.04535        6.76961
C          0.81695       -0.48260        6.57535
C          2.16031       -1.14813        6.90543
C         -0.28445       -1.12286        7.45061
C         -1.72245       -0.67339        7.16330
N         -2.10396       -0.87288        5.76978
H          1.12789        1.11271        0.37639
H          0.24463        0.08553       -0.74169
H          1.96626       -0.18098       -0.51276
H         -0.25955       -0.59059        1.54250
H          0.52078       -1.87109        0.65660
H          1.16985       -1.70420        2.98483
H          3.32596       -2.41149        2.76297
H          2.66835       -2.70170        1.16630
H          3.86016       -0.75010        0.26999
H          4.98105       -1.75593        1.16057
H          5.27404        0.66980        1.66140
H          4.90354       -0.27715        3.09864
H          2.96831        1.47132        1.50979
H          3.59621        1.78781        3.10868
H          2.50218       -0.17779        4.02573
H          0.37982        1.29491        2.57924
H          2.62920        1.33843        5.44827
H          1.85765        2.80697        5.97573
H          1.39851        1.25979        7.72553
H         -0.09864        1.47859        6.84235
H          0.59035       -0.70814        5.52833
H          2.43293       -0.99048        7.95464
H          2.10947       -2.22821        6.72997
H          2.97082       -0.75517        6.28566
H         -0.23932       -2.21359        7.32763
H         -0.06768       -0.92548        8.50849
H         -2.39991       -1.25911        7.79507
H         -1.87009        0.37513        7.43930
H         -3.08545       -0.61925        5.65592
H         -1.59176       -0.21324        5.18170

--Link1--
%chk=JID_8921.chk
%mem=8GB
%nprocshared=4
# B3LYP/6-311++G(d,p) empiricaldispersion=gd3bj scf=xqc pop=npa geom=check

CID_64349505_JID_8921_Energie_neutraal

0 1

--Link1--
%chk=JID_8921.chk
%mem=8GB
%nprocshared=4
# B3LYP/6-311++G(d,p) empiricaldispersion=gd3bj scf=xqc pop=npa geom=check

CID_64349505_JID_8921_Energie_kation

1 2

--Link1--
%chk=JID_8921.chk
%mem=8GB
%nprocshared=4
# B3LYP/6-311++G(d,p) empiricaldispersion=gd3bj scf=xqc pop=npa geom=check

CID_64349505_JID_8921_Energie_anion

-1 2
