%chk=JID_9426.chk
%mem=8GB
%nprocshared=4
# opt freq B3LYP/6-31G(d) empiricaldispersion=gd3bj scf=xqc

CID_64168065_JID_9426_neutraal

0 1
C          1.86400        1.49500        0.03800
C          0.49601        0.95638       -0.28074
C          0.32341       -0.19219       -1.07773
C         -0.97581       -0.59297       -1.42417
C         -2.09582        0.06497       -0.91407
C         -1.91564        1.16696       -0.08211
C         -0.63124        1.61192        0.24213
S         -3.31915        2.03226        0.56839
O         -4.52020        1.34807        0.14555
O         -3.05570        2.30439        1.96389
N         -3.25920        3.51011       -0.21098
C         -3.23025        3.61342       -1.68293
C         -4.45803        3.03589       -2.36952
C         -2.98082        5.08083       -2.08678
O         -1.96693        5.34221       -2.74539
N         -3.86176        6.08494       -1.69434
C         -5.15070        5.87742       -1.04849
C         -3.63230        7.43127       -2.19905
N          1.40968       -0.80946       -1.71632
H          2.42955        0.76570        0.62672
H          2.40868        1.72290       -0.88394
H          1.80748        2.42054        0.62088
H         -1.12378       -1.43272       -2.09945
H         -3.09146       -0.28128       -1.18094
H         -0.50669        2.47758        0.88974
H         -2.71733        4.20641        0.30200
H         -2.34678        3.07225       -2.04468
H         -5.38939        3.27132       -1.84777
H         -4.54508        3.40490       -3.39721
H         -4.39013        1.94425       -2.42334
H         -5.36859        6.72899       -0.39655
H         -5.91862        5.81063       -1.82473
H         -5.17883        4.97771       -0.43818
H         -3.80652        8.15082       -1.39343
H         -2.61303        7.56912       -2.56884
H         -4.33375        7.62053       -3.01719
H          1.22742       -1.76731       -1.99983
H          2.28705       -0.72726       -1.21347

--Link1--
%chk=JID_9426.chk
%mem=8GB
%nprocshared=4
# B3LYP/6-311++G(d,p) empiricaldispersion=gd3bj scf=xqc pop=npa geom=check

CID_64168065_JID_9426_Energie_neutraal

0 1

--Link1--
%chk=JID_9426.chk
%mem=8GB
%nprocshared=4
# B3LYP/6-311++G(d,p) empiricaldispersion=gd3bj scf=xqc pop=npa geom=check

CID_64168065_JID_9426_Energie_kation

1 2

--Link1--
%chk=JID_9426.chk
%mem=8GB
%nprocshared=4
# B3LYP/6-311++G(d,p) empiricaldispersion=gd3bj scf=xqc pop=npa geom=check

CID_64168065_JID_9426_Energie_anion

-1 2
