%chk=JID_9744.chk
%mem=8GB
%nprocshared=4
# opt freq B3LYP/6-31G(d) empiricaldispersion=gd3bj scf=xqc

CID_75422454_JID_9744_neutraal

0 1
C          0.98931       -0.06076       -0.07871
C          0.56319       -0.91436       -1.27955
C          1.41834       -2.16963       -1.32365
C          1.19419       -3.26723       -0.48477
C          2.02914       -4.37039       -0.58095
N          3.07478       -4.45233       -1.43077
C          3.30771       -3.37076       -2.20113
C          2.52480       -2.22616       -2.18200
N         -0.87381       -1.14538       -1.16430
C         -1.65654       -1.18983       -2.40044
C         -1.67941       -2.48223       -3.25261
C         -0.57079       -2.50800       -4.31983
C         -0.48569       -3.87366       -5.00566
C         -0.18878       -4.97381       -3.98921
N         -1.03713       -4.87545       -2.82060
C         -1.70220       -3.73983       -2.43013
N         -2.35645       -3.95452       -1.30508
C         -2.11034       -5.26409       -0.97738
C         -1.28710       -5.85486       -1.90624
H          0.81734       -0.57669        0.87361
H          0.43428        0.88422       -0.05370
H          2.05608        0.18619       -0.13167
H          0.75690       -0.31631       -2.17949
H          0.37918       -3.28184        0.23148
H          1.86901       -5.24350        0.04525
H          4.16946       -3.44751       -2.85786
H          2.77650       -1.39342       -2.83085
H         -1.09260       -1.97277       -0.60643
H         -2.69290       -1.01739       -2.07845
H         -1.41911       -0.32426       -3.03181
H         -2.63249       -2.47370       -3.80264
H          0.40171       -2.26942       -3.88811
H         -0.77125       -1.73479       -5.07150
H         -1.43640       -4.08367       -5.51186
H          0.29330       -3.86141       -5.77586
H         -0.34038       -5.96086       -4.43841
H          0.84509       -4.90547       -3.63525
H         -2.53757       -5.71058       -0.08900
H         -0.87358       -6.85028       -1.98349

--Link1--
%chk=JID_9744.chk
%mem=8GB
%nprocshared=4
# B3LYP/6-311++G(d,p) empiricaldispersion=gd3bj scf=xqc pop=npa geom=check

CID_75422454_JID_9744_Energie_neutraal

0 1

--Link1--
%chk=JID_9744.chk
%mem=8GB
%nprocshared=4
# B3LYP/6-311++G(d,p) empiricaldispersion=gd3bj scf=xqc pop=npa geom=check

CID_75422454_JID_9744_Energie_kation

1 2

--Link1--
%chk=JID_9744.chk
%mem=8GB
%nprocshared=4
# B3LYP/6-311++G(d,p) empiricaldispersion=gd3bj scf=xqc pop=npa geom=check

CID_75422454_JID_9744_Energie_anion

-1 2
