%chk=JID_850.chk
%mem=8GB
%nprocshared=4
# opt freq B3LYP/6-31G(d) empiricaldispersion=gd3bj scf=xqc

CID_143195884_JID_850_neutraal

0 1
C          1.03577        0.06071       -0.07096
C          2.01791        0.33486        1.04545
C         -1.33531       -3.36606        1.41808
C         -2.05953       -3.24492        2.74989
C         -1.46747       -2.17501        3.67253
C         -1.51596       -0.75786        3.10647
O         -2.86604       -0.40648        2.82688
C         -3.01081        0.75263        2.00720
C         -2.70194        2.05290        2.74935
C         -1.29498        2.57036        2.48056
H          0.61797       -0.94585        0.02328
H          1.52891        0.13847       -1.04443
H          0.21171        0.77975       -0.04356
H          2.43958        1.33965        0.94801
H          1.52522        0.26163        2.01937
H          2.83911       -0.38762        1.02052
H         -1.47406       -2.47072        0.80490
H         -1.72853       -4.21710        0.85278
H         -0.26227       -3.52333        1.56572
H         -3.12141       -3.04288        2.56857
H         -2.00844       -4.21166        3.26510
H         -2.03318       -2.19773        4.61225
H         -0.42918       -2.43077        3.91418
H         -1.11460       -0.06821        3.85568
H         -0.90422       -0.68689        2.20213
H         -2.43057        0.64391        1.08356
H         -4.06667        0.77088        1.71470
H         -3.40137        2.82494        2.40670
H         -2.84929        1.92872        3.82782
H         -1.13935        2.73941        1.41010
H         -1.14159        3.52369        2.99650
H         -0.52838        1.87528        2.83050

--Link1--
%chk=JID_850.chk
%mem=8GB
%nprocshared=4
# B3LYP/6-311++G(d,p) empiricaldispersion=gd3bj scf=xqc pop=npa geom=check

CID_143195884_JID_850_Energie_neutraal

0 1

--Link1--
%chk=JID_850.chk
%mem=8GB
%nprocshared=4
# B3LYP/6-311++G(d,p) empiricaldispersion=gd3bj scf=xqc pop=npa geom=check

CID_143195884_JID_850_Energie_kation

1 2

--Link1--
%chk=JID_850.chk
%mem=8GB
%nprocshared=4
# B3LYP/6-311++G(d,p) empiricaldispersion=gd3bj scf=xqc pop=npa geom=check

CID_143195884_JID_850_Energie_anion

-1 2
