%chk=JID_10960.chk
%mem=8GB
%nprocshared=4
# opt freq B3LYP/6-31G(d) empiricaldispersion=gd3bj scf=xqc

CID_63848507_JID_10960_neutraal

0 1
C          0.92653       -0.05470        0.04013
C         -0.04968       -0.41892        1.14804
N         -0.25916        0.73962        2.00990
C         -1.06133        0.44349        3.20759
C         -0.31135       -0.44232        4.25907
C         -0.95958       -1.84811        4.26129
C         -0.16013       -2.82780        5.11089
C          0.03097       -2.27377        6.51294
C          0.59336       -0.85020        6.49104
N         -0.22925        0.03859        5.66163
C         -0.05049        1.49562        5.87892
C          0.02380        1.89805        7.36102
C          1.10448        2.20741        5.14612
O          0.94433        3.31866        4.63151
N          2.37889        1.74676        5.33330
C          2.86470        0.88776        4.39461
O          2.49803        0.84600        3.22521
N          3.93031        0.13387        4.78601
C          4.58487        0.13171        6.07961
C          5.15722       -1.23617        6.39705
H          0.55366        0.78313       -0.55882
H          1.06914       -0.90904       -0.62957
H          1.90607        0.22129        0.44470
H         -1.00165       -0.73639        0.70796
H          0.37138       -1.26507        1.69973
H          0.65943        1.09412        2.30915
H         -1.33974        1.41353        3.62162
H         -2.01552       -0.01099        2.91213
H          0.71382       -0.58484        3.90835
H         -1.03069       -2.24605        3.24286
H         -1.98651       -1.78290        4.64522
H         -0.67415       -3.79421        5.15479
H          0.81800       -3.00366        4.64645
H         -0.93241       -2.27592        7.03882
H          0.70367       -2.92799        7.07944
H          0.62241       -0.52386        7.53441
H          1.62749       -0.87582        6.13650
H         -0.97059        1.97138        5.51939
H          0.97772        1.61834        7.82131
H         -0.06540        2.98618        7.46241
H         -0.79291        1.44824        7.93583
H          2.97024        2.56235        5.22024
H          4.35249       -0.38448        4.02367
H          5.38315        0.87966        6.04005
H          3.87704        0.43002        6.85914
H          5.65891       -1.22499        7.36918
H          4.36501       -1.99198        6.42652
H          5.88367       -1.54441        5.63787

--Link1--
%chk=JID_10960.chk
%mem=8GB
%nprocshared=4
# B3LYP/6-311++G(d,p) empiricaldispersion=gd3bj scf=xqc pop=npa geom=check

CID_63848507_JID_10960_Energie_neutraal

0 1

--Link1--
%chk=JID_10960.chk
%mem=8GB
%nprocshared=4
# B3LYP/6-311++G(d,p) empiricaldispersion=gd3bj scf=xqc pop=npa geom=check

CID_63848507_JID_10960_Energie_kation

1 2

--Link1--
%chk=JID_10960.chk
%mem=8GB
%nprocshared=4
# B3LYP/6-311++G(d,p) empiricaldispersion=gd3bj scf=xqc pop=npa geom=check

CID_63848507_JID_10960_Energie_anion

-1 2
