%chk=JID_1138.chk
%mem=8GB
%nprocshared=4
# opt freq B3LYP/6-31G(d) empiricaldispersion=gd3bj scf=xqc

CID_131223085_JID_1138_neutraal

0 1
C          0.94047        0.07993        0.00825
C          0.51872        0.47105       -1.39691
N          0.50051       -0.66480       -2.29927
C         -0.27127       -1.75941       -2.35058
O          0.13858       -2.74071       -2.97188
N         -1.47573       -1.83955       -1.76779
C         -2.39533       -0.81416       -1.30977
C         -2.94366        0.08129       -2.43238
C         -3.84682       -0.66060       -3.43863
N         -5.15349       -0.99299       -2.84611
O         -3.71082        1.14112       -1.83842
H          0.24943       -0.64453        0.44978
H          0.97167        0.96173        0.65542
H          1.93653       -0.37539        0.00225
H         -0.44679        0.97545       -1.39782
H          1.24497        1.18118       -1.80768
H          1.37248       -0.84069       -2.78347
H         -1.87673       -2.75502       -1.92807
H         -3.21766       -1.33048       -0.80067
H         -1.91888       -0.21628       -0.52993
H         -2.11904        0.54776       -2.98075
H         -4.04267        0.00998       -4.28329
H         -3.36310       -1.55952       -3.83335
H         -5.76912       -1.32754       -3.59060
H         -5.04779       -1.78801       -2.21443
H         -4.63697        0.81670       -1.86203

--Link1--
%chk=JID_1138.chk
%mem=8GB
%nprocshared=4
# B3LYP/6-311++G(d,p) empiricaldispersion=gd3bj scf=xqc pop=npa geom=check

CID_131223085_JID_1138_Energie_neutraal

0 1

--Link1--
%chk=JID_1138.chk
%mem=8GB
%nprocshared=4
# B3LYP/6-311++G(d,p) empiricaldispersion=gd3bj scf=xqc pop=npa geom=check

CID_131223085_JID_1138_Energie_kation

1 2

--Link1--
%chk=JID_1138.chk
%mem=8GB
%nprocshared=4
# B3LYP/6-311++G(d,p) empiricaldispersion=gd3bj scf=xqc pop=npa geom=check

CID_131223085_JID_1138_Energie_anion

-1 2
