%chk=JID_9805.chk
%mem=8GB
%nprocshared=4
# opt freq B3LYP/6-31G(d) empiricaldispersion=gd3bj scf=xqc

CID_61277911_JID_9805_neutraal

0 1
C          2.49200        0.00400       -0.01400
C          0.99954        0.12395       -0.20401
C          0.13978       -1.00530       -0.19504
C         -1.22761       -0.79432       -0.37828
C         -1.73369        0.50008       -0.56488
C         -0.89270        1.60754       -0.57782
C          0.47165        1.41583       -0.39728
S         -3.47256        0.72778       -0.78903
O         -3.69735        1.26123       -2.11001
O         -4.16686       -0.43407       -0.28298
N         -3.83602        1.96226        0.29110
N          0.73148       -2.27561       -0.02834
C          0.30176       -3.56269        0.10335
O          1.19162       -4.42014        0.12658
C         -1.16245       -3.94094        0.23957
C         -1.74408       -3.47663        1.55997
C         -1.43826       -4.63466        2.48376
O         -1.55685       -5.81561        1.69037
C         -1.37593       -5.45139        0.31168
H          2.71691       -0.49248        0.93555
H          2.93517       -0.55890       -0.84173
H          2.97723        0.98569        0.01269
H         -1.94008       -1.60436       -0.40422
H         -1.28680        2.60887       -0.73049
H          1.12934        2.28361       -0.40900
H         -4.20367        2.76625       -0.21971
H         -4.47158        1.61292        1.00972
H          1.74515       -2.28915       -0.03063
H         -1.68248       -3.56823       -0.64592
H         -2.83054       -3.36757        1.45736
H         -1.34113       -2.53933        1.95141
H         -0.41344       -4.58156        2.86728
H         -2.12583       -4.68844        3.33228
H         -2.30044       -5.72833       -0.20761
H         -0.56829       -6.05309       -0.11454

--Link1--
%chk=JID_9805.chk
%mem=8GB
%nprocshared=4
# B3LYP/6-311++G(d,p) empiricaldispersion=gd3bj scf=xqc pop=npa geom=check

CID_61277911_JID_9805_Energie_neutraal

0 1

--Link1--
%chk=JID_9805.chk
%mem=8GB
%nprocshared=4
# B3LYP/6-311++G(d,p) empiricaldispersion=gd3bj scf=xqc pop=npa geom=check

CID_61277911_JID_9805_Energie_kation

1 2

--Link1--
%chk=JID_9805.chk
%mem=8GB
%nprocshared=4
# B3LYP/6-311++G(d,p) empiricaldispersion=gd3bj scf=xqc pop=npa geom=check

CID_61277911_JID_9805_Energie_anion

-1 2
