%chk=JID_7675.chk
%mem=8GB
%nprocshared=4
# opt freq B3LYP/6-31G(d) empiricaldispersion=gd3bj scf=xqc

CID_83969284_JID_7675_neutraal

0 1
C          1.02844        0.05683       -0.07722
N          0.77697        0.44265       -1.46247
C          0.50267       -0.65760       -2.40066
C         -0.92651       -1.20781       -2.33338
C         -1.97910       -0.41797       -3.11123
N         -1.72456       -0.41512       -4.54905
C          0.64355        1.80772       -1.73350
O          0.69288        2.67661       -0.86415
C          0.40082        2.27135       -3.11809
C          1.31275        1.98912       -4.14457
C          0.99344        2.45059       -5.42897
C         -0.15450        3.19859       -5.69866
C         -1.02407        3.52069       -4.63947
C         -0.73055        3.05912       -3.35185
C         -0.15418        3.47992       -7.09203
C          0.97443        2.91012       -7.63453
N          1.66686        2.30152       -6.62137
H          0.12206       -0.38847        0.34144
H          1.31772        0.90906        0.54321
H          1.84091       -0.67550       -0.05530
H          0.75294       -0.37270       -3.42161
H          1.19952       -1.46505       -2.14298
H         -0.91298       -2.23219       -2.72892
H         -1.25269       -1.28971       -1.29032
H         -2.95396       -0.89036       -2.94460
H         -2.06032        0.60520       -2.73624
H         -2.53483       -0.02155       -5.02942
H         -0.96522        0.23364       -4.76480
H          2.22217        1.42963       -3.95177
H         -1.91113        4.12236       -4.81553
H         -1.39416        3.31141       -2.52696
H         -0.90137        4.04196       -7.63725
H          1.34651        2.89192       -8.65020
H          2.54231        1.80779       -6.73014

--Link1--
%chk=JID_7675.chk
%mem=8GB
%nprocshared=4
# B3LYP/6-311++G(d,p) empiricaldispersion=gd3bj scf=xqc pop=npa geom=check

CID_83969284_JID_7675_Energie_neutraal

0 1

--Link1--
%chk=JID_7675.chk
%mem=8GB
%nprocshared=4
# B3LYP/6-311++G(d,p) empiricaldispersion=gd3bj scf=xqc pop=npa geom=check

CID_83969284_JID_7675_Energie_kation

1 2

--Link1--
%chk=JID_7675.chk
%mem=8GB
%nprocshared=4
# B3LYP/6-311++G(d,p) empiricaldispersion=gd3bj scf=xqc pop=npa geom=check

CID_83969284_JID_7675_Energie_anion

-1 2
