%chk=JID_3553.chk
%mem=8GB
%nprocshared=4
# opt freq B3LYP/6-31G(d) empiricaldispersion=gd3bj scf=xqc

CID_45099659_JID_3553_neutraal

0 1
C          0.91708       -0.04820       -0.02830
C          0.22133       -0.89963        0.98594
C         -0.46417       -0.48642        2.06420
C         -0.73769        0.88132        2.44557
C         -0.59818        1.29446        3.71843
N         -0.85172        2.59414        4.06819
C         -1.18124        3.53882        3.11672
N         -1.28046        4.80881        3.38728
C         -1.40258        2.96029        1.72622
N         -1.18802        1.70781        1.43082
C         -1.87550        3.73280        0.60727
N         -2.25571        4.40896       -0.25860
O         -0.49295        3.08868        5.31937
H          1.01447        0.99783        0.27159
H          0.38521       -0.09313       -0.98331
H          1.93116       -0.43014       -0.18645
H          0.32084       -1.97248        0.82955
H         -0.85633       -1.24538        2.73997
H         -0.25305        0.66096        4.52728
H         -1.52582        5.36909        2.56126
H         -0.68017        4.04905        5.22858

--Link1--
%chk=JID_3553.chk
%mem=8GB
%nprocshared=4
# B3LYP/6-311++G(d,p) empiricaldispersion=gd3bj scf=xqc pop=npa geom=check

CID_45099659_JID_3553_Energie_neutraal

0 1

--Link1--
%chk=JID_3553.chk
%mem=8GB
%nprocshared=4
# B3LYP/6-311++G(d,p) empiricaldispersion=gd3bj scf=xqc pop=npa geom=check

CID_45099659_JID_3553_Energie_kation

1 2

--Link1--
%chk=JID_3553.chk
%mem=8GB
%nprocshared=4
# B3LYP/6-311++G(d,p) empiricaldispersion=gd3bj scf=xqc pop=npa geom=check

CID_45099659_JID_3553_Energie_anion

-1 2
