%chk=JID_5077.chk
%mem=8GB
%nprocshared=4
# opt freq B3LYP/6-31G(d) empiricaldispersion=gd3bj scf=xqc

CID_151797065_JID_5077_neutraal

0 1
C          1.04683        0.07260        0.05036
C          2.00136       -0.50579       -1.01348
C          1.52692       -1.73779       -1.80297
C          1.46844       -3.06855       -1.00438
C          0.80723       -4.28407       -1.74136
C         -0.32899       -3.85911       -2.62539
C         -1.58675       -3.69589       -2.17838
C         -2.35451       -2.58437       -2.74059
C         -2.85346       -1.71181       -1.83774
C         -2.11567       -0.45402       -1.72529
C         -1.35245       -0.27086       -0.63267
C         -0.24630        0.72834       -0.47993
N          2.82440       -3.45356       -0.54018
N          3.68208       -3.68723       -1.41398
N          4.45715       -3.90201       -2.22228
H          1.60839        0.85757        0.57487
H          0.82235       -0.68866        0.80672
H          2.22150        0.29133       -1.73543
H          2.95637       -0.73947       -0.52742
H          0.55317       -1.49599       -2.23084
H          2.19892       -1.86687       -2.66110
H          0.87057       -2.88520       -0.10306
H          1.53400       -4.81945       -2.36281
H          0.46867       -5.00927       -0.98979
H         -0.02168       -3.40917       -3.56890
H         -1.86904       -4.06166       -1.19288
H         -1.94255       -2.18400       -3.66946
H         -3.19039       -2.09805       -0.87372
H         -2.01550        0.17517       -2.60547
H         -1.45442       -0.96300        0.20321
H         -0.04961        1.26264       -1.41611
H         -0.57917        1.47283        0.25358

--Link1--
%chk=JID_5077.chk
%mem=8GB
%nprocshared=4
# B3LYP/6-311++G(d,p) empiricaldispersion=gd3bj scf=xqc pop=npa geom=check

CID_151797065_JID_5077_Energie_neutraal

0 1

--Link1--
%chk=JID_5077.chk
%mem=8GB
%nprocshared=4
# B3LYP/6-311++G(d,p) empiricaldispersion=gd3bj scf=xqc pop=npa geom=check

CID_151797065_JID_5077_Energie_kation

1 2

--Link1--
%chk=JID_5077.chk
%mem=8GB
%nprocshared=4
# B3LYP/6-311++G(d,p) empiricaldispersion=gd3bj scf=xqc pop=npa geom=check

CID_151797065_JID_5077_Energie_anion

-1 2
