%chk=JID_10913.chk
%mem=8GB
%nprocshared=4
# opt freq B3LYP/6-31G(d) empiricaldispersion=gd3bj scf=xqc

CID_43395581_JID_10913_neutraal

0 1
C          1.34400       -0.22500        0.03600
C          0.88694        0.78679       -0.80531
C         -0.48014        1.05679       -0.89577
C         -1.40107        0.31592       -0.13840
C         -0.93387       -0.69971        0.70781
C          0.43622       -0.96707        0.78990
N         -2.79027        0.60912       -0.24607
C         -3.83778        0.03132        0.44140
C         -5.00457        0.62913        0.00916
C         -4.56208        1.56095       -0.95077
N         -3.23914        1.55667       -1.11016
C         -6.39925        0.35353        0.44658
N         -6.96859        1.59886        0.95030
C         -8.33857        1.43131        1.45037
C         -8.47282        0.72415        2.80958
C         -7.74761        1.43690        3.89440
C         -8.00170        2.58728        4.61127
C         -6.90829        2.75466        5.49458
C         -6.06231        1.69586        5.26313
O         -6.56278        0.89116        4.29095
H          2.40829       -0.43529        0.10368
H          1.59263        1.36816       -1.39319
H         -0.81461        1.85258       -1.55939
H         -1.60382       -1.30492        1.30960
H          0.79613       -1.75794        1.44356
H         -3.68213       -0.74104        1.17830
H         -5.16018        2.25055       -1.53388
H         -6.97743       -0.01657       -0.40798
H         -6.39531       -0.42439        1.21798
H         -6.37649        1.93904        1.71211
H         -8.77254        2.43545        1.53568
H         -8.94727        0.90655        0.70366
H         -9.53605        0.66980        3.07388
H         -8.12122       -0.31147        2.73860
H         -8.86345        3.23104        4.50190
H         -6.75319        3.54979        6.21010
H         -5.11403        1.38916        5.68194

--Link1--
%chk=JID_10913.chk
%mem=8GB
%nprocshared=4
# B3LYP/6-311++G(d,p) empiricaldispersion=gd3bj scf=xqc pop=npa geom=check

CID_43395581_JID_10913_Energie_neutraal

0 1

--Link1--
%chk=JID_10913.chk
%mem=8GB
%nprocshared=4
# B3LYP/6-311++G(d,p) empiricaldispersion=gd3bj scf=xqc pop=npa geom=check

CID_43395581_JID_10913_Energie_kation

1 2

--Link1--
%chk=JID_10913.chk
%mem=8GB
%nprocshared=4
# B3LYP/6-311++G(d,p) empiricaldispersion=gd3bj scf=xqc pop=npa geom=check

CID_43395581_JID_10913_Energie_anion

-1 2
