%chk=JID_4942.chk
%mem=8GB
%nprocshared=4
# opt freq B3LYP/6-31G(d) empiricaldispersion=gd3bj scf=xqc

CID_12740280_JID_4942_neutraal

0 1
C          1.01035       -0.09565        0.02726
C          0.65820        0.13224       -1.47136
C          0.28202        1.65512       -1.64076
C          1.47510        2.62806       -1.65727
C          2.67310        2.14996       -2.47330
C          3.02483        0.72638       -2.12018
C          4.22841        0.42859       -1.60152
C          1.88198       -0.25724       -2.39049
C          2.31202       -1.74281       -2.33731
C          1.48840       -2.66658       -3.20640
O          0.80108       -2.30922       -4.15687
O         -0.69906        1.92936       -2.65016
C         -0.29672        1.96944       -4.00466
C         -0.58480       -0.73256       -1.76776
H          1.22113       -1.14690        0.24449
H          0.17075        0.19116        0.67215
H          1.87534        0.49279        0.34735
H         -0.27687        1.92529       -0.73373
H          1.81422        2.77250       -0.62248
H          1.15882        3.61330       -2.01966
H          3.51648        2.82758       -2.29155
H          2.46814        2.20921       -3.54717
H          4.97655        1.20017       -1.43805
H          4.51335       -0.57466       -1.30575
H          1.59489       -0.07590       -3.43126
H          3.33426       -1.87161       -2.71282
H          2.29277       -2.13663       -1.31812
H          1.60397       -3.74048       -2.97901
H          0.40729        2.78405       -4.18564
H          0.11059        1.01576       -4.33733
H         -1.18666        2.17058       -4.60880
H         -0.42759       -1.77913       -1.48765
H         -1.45098       -0.37980       -1.19530
H         -0.85761       -0.70262       -2.82676

--Link1--
%chk=JID_4942.chk
%mem=8GB
%nprocshared=4
# B3LYP/6-311++G(d,p) empiricaldispersion=gd3bj scf=xqc pop=npa geom=check

CID_12740280_JID_4942_Energie_neutraal

0 1

--Link1--
%chk=JID_4942.chk
%mem=8GB
%nprocshared=4
# B3LYP/6-311++G(d,p) empiricaldispersion=gd3bj scf=xqc pop=npa geom=check

CID_12740280_JID_4942_Energie_kation

1 2

--Link1--
%chk=JID_4942.chk
%mem=8GB
%nprocshared=4
# B3LYP/6-311++G(d,p) empiricaldispersion=gd3bj scf=xqc pop=npa geom=check

CID_12740280_JID_4942_Energie_anion

-1 2
