%chk=JID_7081.chk
%mem=8GB
%nprocshared=4
# opt freq B3LYP/6-31G(d) empiricaldispersion=gd3bj scf=xqc

CID_115451272_JID_7081_neutraal

0 1
C          0.98847        0.05738       -0.08108
C          0.28801       -0.71684       -1.20786
C          0.67020       -2.19947       -1.11126
C         -1.25881       -0.53519       -1.16718
C         -1.69288        0.93767       -1.14229
N         -1.97790       -1.26849       -2.23719
C         -3.21451       -1.91691       -1.81568
C         -1.69658       -0.99959       -3.55880
O         -0.95080       -0.09512       -3.93215
N         -2.28430       -1.74446       -4.53134
C         -2.39522       -3.19436       -4.54839
C         -3.69594       -3.64042       -5.19669
C         -4.24000       -2.87677       -6.40873
C         -3.60503       -4.21276       -6.61328
C         -4.66182       -4.31511       -4.28360
O         -4.44992       -5.38840       -3.74684
O         -5.80094       -3.62620       -4.07756
H          0.58463       -0.21736        0.89910
H          0.87673        1.13805       -0.21112
H          2.06340       -0.15410       -0.07454
H          0.68749       -0.33508       -2.15376
H          0.29893       -2.64477       -0.18198
H          0.26356       -2.77264       -1.95032
H          1.75879       -2.32142       -1.13127
H         -1.59326       -0.98068       -0.21910
H         -1.25083        1.50576       -1.96646
H         -2.78164        1.02773       -1.22374
H         -1.39939        1.42020       -0.20501
H         -3.90188       -2.07891       -2.64558
H         -2.96308       -2.86800       -1.33817
H         -3.73278       -1.27976       -1.09201
H         -2.01050       -1.35567       -5.42420
H         -1.53640       -3.56249       -5.12282
H         -2.27525       -3.61138       -3.54464
H         -5.31621       -2.79738       -6.52646
H         -3.71269       -2.00489       -6.77658
H         -2.64150       -4.24310       -7.10932
H         -4.25181       -5.04403       -6.87609
H         -6.32432       -4.20058       -3.48212

--Link1--
%chk=JID_7081.chk
%mem=8GB
%nprocshared=4
# B3LYP/6-311++G(d,p) empiricaldispersion=gd3bj scf=xqc pop=npa geom=check

CID_115451272_JID_7081_Energie_neutraal

0 1

--Link1--
%chk=JID_7081.chk
%mem=8GB
%nprocshared=4
# B3LYP/6-311++G(d,p) empiricaldispersion=gd3bj scf=xqc pop=npa geom=check

CID_115451272_JID_7081_Energie_kation

1 2

--Link1--
%chk=JID_7081.chk
%mem=8GB
%nprocshared=4
# B3LYP/6-311++G(d,p) empiricaldispersion=gd3bj scf=xqc pop=npa geom=check

CID_115451272_JID_7081_Energie_anion

-1 2
