%chk=JID_9526.chk
%mem=8GB
%nprocshared=4
# opt freq B3LYP/6-31G(d) empiricaldispersion=gd3bj scf=xqc

CID_81054135_JID_9526_neutraal

0 1
C          1.09024        0.00031        0.04309
C          1.38919        0.88614       -1.15740
N          1.82996        0.17681       -2.36507
C          0.93434       -0.81863       -2.99878
C         -0.38860       -0.24161       -3.50315
O         -1.42889       -0.88830       -3.55079
O         -0.25857        1.04010       -3.95033
C         -1.43573        1.58165       -4.54699
C          3.19676       -0.03066       -2.57927
C          3.85162        0.45796       -3.73250
C          5.23216        0.26141       -3.87452
N          5.96499       -0.42666       -2.96054
C          5.33056       -0.92598       -1.87918
C          3.96614       -0.75857       -1.66705
C          6.15357       -1.73282       -0.92024
C          6.01229        0.79922       -5.03913
C          3.10087        1.22484       -4.75164
S          2.66263        0.63477       -6.25322
N          2.75819        2.50358       -4.39608
H          0.37549       -0.79101       -0.19915
H          0.65224        0.60497        0.84466
H          1.98984       -0.46391        0.45071
H          0.47903        1.44713       -1.40001
H          2.13146        1.64369       -0.87530
H          1.41299       -1.29183       -3.86450
H          0.70698       -1.61316       -2.27986
H         -1.67665        1.04045       -5.46709
H         -2.27644        1.55360       -3.84703
H         -1.23478        2.62593       -4.80259
H          3.51139       -1.21925       -0.79975
H          6.09680       -2.79331       -1.18302
H          7.20135       -1.41765       -0.95559
H          5.80044       -1.60022        0.10747
H          7.08826        0.72274       -4.84754
H          5.79662        0.22396       -5.94372
H          5.78852        1.85692       -5.20802
H          2.84337        2.81457       -3.43614
H          2.12440        3.01485       -4.99813

--Link1--
%chk=JID_9526.chk
%mem=8GB
%nprocshared=4
# B3LYP/6-311++G(d,p) empiricaldispersion=gd3bj scf=xqc pop=npa geom=check

CID_81054135_JID_9526_Energie_neutraal

0 1

--Link1--
%chk=JID_9526.chk
%mem=8GB
%nprocshared=4
# B3LYP/6-311++G(d,p) empiricaldispersion=gd3bj scf=xqc pop=npa geom=check

CID_81054135_JID_9526_Energie_kation

1 2

--Link1--
%chk=JID_9526.chk
%mem=8GB
%nprocshared=4
# B3LYP/6-311++G(d,p) empiricaldispersion=gd3bj scf=xqc pop=npa geom=check

CID_81054135_JID_9526_Energie_anion

-1 2
