%chk=JID_4500.chk
%mem=8GB
%nprocshared=4
# opt freq B3LYP/6-31G(d) empiricaldispersion=gd3bj scf=xqc

CID_82508979_JID_4500_neutraal

0 1
C          0.95722        0.02287        0.08745
C          0.95199        0.96796       -1.08839
C          0.41759        0.68758       -2.30817
S          0.54960        1.82965       -3.64584
C          0.81740        3.34821       -2.70981
C          1.94381        3.07183       -1.74093
O          1.55830        2.15648       -0.71820
C         -0.22093       -0.65150       -2.67976
N         -1.68098       -0.78878       -2.66440
C         -2.33489       -0.57620       -1.37081
C         -2.88990        0.84485       -1.13874
N         -3.78859        1.27823       -2.22129
C         -3.04814        1.21952       -3.49291
C         -2.40259       -0.15828       -3.77680
H          0.57588       -0.97573       -0.12308
H          0.35402        0.44252        0.89978
H          1.98199       -0.10048        0.45536
H         -0.10610        3.61865       -2.18746
H          1.08280        4.15275       -3.40115
H          2.85241        2.70581       -2.23612
H          2.21737        4.00519       -1.23652
H          0.14155       -0.94593       -3.67577
H          0.18873       -1.45029       -2.05219
H         -3.18159       -1.27457       -1.32196
H         -1.68725       -0.86566       -0.53752
H         -2.07571        1.56893       -1.02430
H         -3.45234        0.85893       -0.19845
H         -4.55548        0.60746       -2.27836
H         -2.29621        2.01220       -3.49408
H         -3.74185        1.45881       -4.30726
H         -1.78277       -0.10057       -4.67949
H         -3.21884       -0.84496       -4.04011

--Link1--
%chk=JID_4500.chk
%mem=8GB
%nprocshared=4
# B3LYP/6-311++G(d,p) empiricaldispersion=gd3bj scf=xqc pop=npa geom=check

CID_82508979_JID_4500_Energie_neutraal

0 1

--Link1--
%chk=JID_4500.chk
%mem=8GB
%nprocshared=4
# B3LYP/6-311++G(d,p) empiricaldispersion=gd3bj scf=xqc pop=npa geom=check

CID_82508979_JID_4500_Energie_kation

1 2

--Link1--
%chk=JID_4500.chk
%mem=8GB
%nprocshared=4
# B3LYP/6-311++G(d,p) empiricaldispersion=gd3bj scf=xqc pop=npa geom=check

CID_82508979_JID_4500_Energie_anion

-1 2
