%chk=JID_5943.chk
%mem=8GB
%nprocshared=4
# opt freq B3LYP/6-31G(d) empiricaldispersion=gd3bj scf=xqc

CID_105282101_JID_5943_neutraal

0 1
C         -1.43100        0.32400       -0.23100
C         -0.93910       -0.89323        0.54145
C          0.48376       -1.28596        0.14375
C          1.47589       -0.11015        0.31086
C          0.95310        1.08350       -0.52282
C         -0.45918        1.49120       -0.11117
C          2.91693       -0.47515       -0.12503
C          4.02274        0.50178        0.23532
C          4.01652        1.83069        0.99562
C          4.66418        0.61346        1.60659
C          3.99714        0.35565        2.92706
C          3.44843        1.72042        3.33058
C          3.04458        2.36898        2.00767
N          3.30624       -1.82942        0.34261
N          4.38944       -2.36515       -0.46215
H         -2.41774        0.62395        0.13921
H         -1.55387        0.05882       -1.28836
H         -0.96884       -0.67885        1.61697
H         -1.61562       -1.73749        0.36662
H          0.48902       -1.63419       -0.89705
H          0.78459       -2.13456        0.76865
H          1.46910        0.15080        1.37317
H          0.94673        0.81308       -1.58728
H          1.61386        1.95072       -0.43690
H         -0.80175        2.31935       -0.74183
H         -0.44946        1.85836        0.92220
H          2.88242       -0.51466       -1.22435
H          4.74218        0.47296       -0.58750
H          4.66989        2.61170        0.61911
H          5.74564        0.58783        1.66988
H          3.18454       -0.37063        2.84657
H          4.70761       -0.01738        3.67136
H          2.61804        1.65176        4.03892
H          4.24527        2.31169        3.79884
H          2.00705        2.14496        1.76741
H          3.12280        3.45915        2.08274
H          3.57223       -1.76393        1.32782
H          4.65490       -3.29632       -0.12885
H          4.07909       -2.51546       -1.42674

--Link1--
%chk=JID_5943.chk
%mem=8GB
%nprocshared=4
# B3LYP/6-311++G(d,p) empiricaldispersion=gd3bj scf=xqc pop=npa geom=check

CID_105282101_JID_5943_Energie_neutraal

0 1

--Link1--
%chk=JID_5943.chk
%mem=8GB
%nprocshared=4
# B3LYP/6-311++G(d,p) empiricaldispersion=gd3bj scf=xqc pop=npa geom=check

CID_105282101_JID_5943_Energie_kation

1 2

--Link1--
%chk=JID_5943.chk
%mem=8GB
%nprocshared=4
# B3LYP/6-311++G(d,p) empiricaldispersion=gd3bj scf=xqc pop=npa geom=check

CID_105282101_JID_5943_Energie_anion

-1 2
