%chk=JID_2990.chk
%mem=8GB
%nprocshared=4
# opt freq B3LYP/6-31G(d) empiricaldispersion=gd3bj scf=xqc

CID_130673452_JID_2990_neutraal

0 1
C          0.97561        0.03448       -0.09064
C          0.47495       -0.83963        1.06522
C          1.25456       -0.63218        2.41148
C          2.63955       -1.31544        2.43788
C          3.81581       -0.46092        1.98000
C          3.82234        0.90442        2.65011
C          2.50604        1.63488        2.43032
C          1.31261        0.81985        2.92319
C         -1.06314       -0.65602        1.24503
C         -1.81381       -1.04126        0.02653
N         -2.38964       -1.36803       -0.92757
O         -1.52352       -1.43779        2.35676
H          0.72195        1.08770        0.06302
H          0.52330       -0.27190       -1.03999
H          2.05322       -0.05071       -0.23013
H          0.63679       -1.88812        0.77499
H          0.67780       -1.18559        3.16544
H          2.83997       -1.60875        3.47823
H          2.61956       -2.25162        1.86782
H          3.80344       -0.34153        0.89321
H          4.75131       -0.98281        2.21492
H          4.64894        1.50509        2.25398
H          4.00203        0.78565        3.72569
H          2.39602        1.87758        1.36924
H          2.53108        2.59323        2.96241
H          0.38484        1.35524        2.69655
H          1.37237        0.78315        4.01982
H         -1.28950        0.38883        1.48173
H         -1.44611       -2.37616        2.10750

--Link1--
%chk=JID_2990.chk
%mem=8GB
%nprocshared=4
# B3LYP/6-311++G(d,p) empiricaldispersion=gd3bj scf=xqc pop=npa geom=check

CID_130673452_JID_2990_Energie_neutraal

0 1

--Link1--
%chk=JID_2990.chk
%mem=8GB
%nprocshared=4
# B3LYP/6-311++G(d,p) empiricaldispersion=gd3bj scf=xqc pop=npa geom=check

CID_130673452_JID_2990_Energie_kation

1 2

--Link1--
%chk=JID_2990.chk
%mem=8GB
%nprocshared=4
# B3LYP/6-311++G(d,p) empiricaldispersion=gd3bj scf=xqc pop=npa geom=check

CID_130673452_JID_2990_Energie_anion

-1 2
