%chk=JID_10919.chk
%mem=8GB
%nprocshared=4
# opt freq B3LYP/6-31G(d) empiricaldispersion=gd3bj scf=xqc

CID_104046643_JID_10919_neutraal

0 1
C          2.49200        0.00400       -0.01400
C          1.00096       -0.04168       -0.17110
C          0.29435       -1.21101        0.14085
C         -1.10694       -1.26770        0.03019
C         -1.79360       -0.11354       -0.37487
C         -1.09828        1.05903       -0.67278
C          0.29171        1.09590       -0.56833
C         -1.88321       -2.53271        0.38258
C         -1.38698       -3.73050       -0.43315
N         -1.72154       -2.79009        1.81638
C         -2.73396       -3.36827        2.58517
C         -3.78691       -4.12353        2.06270
C         -4.72309       -4.73905        2.90014
C         -4.60298       -4.63720        4.28324
C         -3.53659       -3.92886        4.84148
C         -2.61301       -3.30832        3.98388
C         -3.36855       -3.84089        6.33812
C         -3.01375       -5.17694        7.00053
C         -1.68263       -5.77023        6.55045
O         -0.61279       -4.87536        6.82092
H          2.75195        0.25424        1.01912
H          2.93954       -0.96224       -0.26955
H          2.93403        0.75245       -0.68006
H          0.84151       -2.08788        0.48419
H         -2.87869       -0.11605       -0.45335
H         -1.64187        1.94858       -0.98086
H          0.81784        2.02033       -0.79550
H         -2.93826       -2.35460        0.13925
H         -0.35316       -3.99761       -0.18721
H         -1.99447       -4.62127       -0.24601
H         -1.43193       -3.51696       -1.50696
H         -1.30299       -1.99645        2.29779
H         -3.91140       -4.25090        0.99275
H         -5.54252       -5.30710        2.46737
H         -5.33886       -5.12249        4.91991
H         -1.77640       -2.76212        4.41467
H         -2.61274       -3.08717        6.59114
H         -4.30868       -3.46849        6.76543
H         -2.96927       -5.00446        8.08327
H         -3.80847       -5.91163        6.82602
H         -1.48884       -6.69311        7.10638
H         -1.68055       -6.02250        5.48512
H         -0.54555       -4.27665        6.05717

--Link1--
%chk=JID_10919.chk
%mem=8GB
%nprocshared=4
# B3LYP/6-311++G(d,p) empiricaldispersion=gd3bj scf=xqc pop=npa geom=check

CID_104046643_JID_10919_Energie_neutraal

0 1

--Link1--
%chk=JID_10919.chk
%mem=8GB
%nprocshared=4
# B3LYP/6-311++G(d,p) empiricaldispersion=gd3bj scf=xqc pop=npa geom=check

CID_104046643_JID_10919_Energie_kation

1 2

--Link1--
%chk=JID_10919.chk
%mem=8GB
%nprocshared=4
# B3LYP/6-311++G(d,p) empiricaldispersion=gd3bj scf=xqc pop=npa geom=check

CID_104046643_JID_10919_Energie_anion

-1 2
