%chk=JID_8617.chk
%mem=8GB
%nprocshared=4
# opt freq B3LYP/6-31G(d) empiricaldispersion=gd3bj scf=xqc

CID_103573758_JID_8617_neutraal

0 1
C          1.07394        0.00520       -0.06713
C          1.17113        0.71830       -1.40895
C          2.15173        0.05021       -2.37117
N          1.65994       -1.19425       -2.93081
C          1.83259       -2.44798       -2.41832
C          1.24774       -3.31719       -3.31272
C          0.75455       -2.48042       -4.33400
N          1.00358       -1.18672       -4.10493
C          1.19836       -4.79174       -3.14144
C          1.58706       -5.48316       -2.00881
N          1.38787       -6.83113       -2.14773
C          0.88822       -6.97465       -3.35108
N          0.78315       -5.77524       -4.00788
C          0.33845       -5.65377       -5.38224
C          1.47704       -5.35912       -6.38378
C          2.56967       -6.44637       -6.45068
C          2.10526       -7.82623       -6.89864
N          0.91109       -5.09863       -7.71657
H          0.63790       -0.99218       -0.17398
H          0.43421        0.57485        0.61464
H          2.05959       -0.09442        0.39836
H          0.17385        0.78345       -1.85976
H          1.50962        1.74504       -1.22607
H          2.35757        0.72014       -3.21468
H          3.10940       -0.15983       -1.88156
H          2.35106       -2.60572       -1.48361
H          0.21882       -2.73490       -5.23759
H          1.98468       -5.07949       -1.08690
H          0.60191       -7.91751       -3.79939
H         -0.18469       -6.58017       -5.64949
H         -0.42425       -4.86783       -5.40196
H          1.97792       -4.43461       -6.07481
H          3.36063       -6.11259       -7.13529
H          3.04953       -6.53955       -5.46903
H          1.70608       -7.80685       -7.91673
H          2.95176       -8.52109       -6.89141
H          1.33986       -8.23384       -6.23354
H          1.66194       -4.83909       -8.35851
H          0.49634       -5.94520       -8.10480

--Link1--
%chk=JID_8617.chk
%mem=8GB
%nprocshared=4
# B3LYP/6-311++G(d,p) empiricaldispersion=gd3bj scf=xqc pop=npa geom=check

CID_103573758_JID_8617_Energie_neutraal

0 1

--Link1--
%chk=JID_8617.chk
%mem=8GB
%nprocshared=4
# B3LYP/6-311++G(d,p) empiricaldispersion=gd3bj scf=xqc pop=npa geom=check

CID_103573758_JID_8617_Energie_kation

1 2

--Link1--
%chk=JID_8617.chk
%mem=8GB
%nprocshared=4
# B3LYP/6-311++G(d,p) empiricaldispersion=gd3bj scf=xqc pop=npa geom=check

CID_103573758_JID_8617_Energie_anion

-1 2
