%chk=JID_4086.chk
%mem=8GB
%nprocshared=4
# opt freq B3LYP/6-31G(d) empiricaldispersion=gd3bj scf=xqc

CID_59314086_JID_4086_neutraal

0 1
C          2.49200        0.00400       -0.01400
C          1.00355        0.17718        0.14421
C          0.17983       -0.86445        0.63324
C         -1.20900       -0.64625        0.75410
C         -1.76483        0.58578        0.37355
C         -0.95190        1.60158       -0.12202
C          0.42166        1.39865       -0.23453
C         -2.10904       -1.68729        1.31383
O         -1.86042       -2.49057        2.19212
O         -3.31988       -1.66406        0.72169
C          0.77562       -2.16866        0.96696
C          0.97500       -3.17519        0.09388
C          1.57252       -4.47689        0.55616
C          0.63016       -3.13092       -1.37019
H          2.93837       -0.37657        0.91042
H          2.70882       -0.68323       -0.83768
H          2.98310        0.95774       -0.23576
H         -2.83432        0.76012        0.46751
H         -1.38788        2.55275       -0.41729
H          1.04170        2.20415       -0.62395
H         -3.79877       -2.40019        1.15666
H          1.03153       -2.28671        2.01858
H          0.87394       -5.30032        0.37513
H          2.50096       -4.68147        0.01308
H          1.80783       -4.46941        1.62571
H         -0.08383       -3.92533       -1.61186
H          0.18168       -2.18381       -1.68182
H          1.53190       -3.28160       -1.97286

--Link1--
%chk=JID_4086.chk
%mem=8GB
%nprocshared=4
# B3LYP/6-311++G(d,p) empiricaldispersion=gd3bj scf=xqc pop=npa geom=check

CID_59314086_JID_4086_Energie_neutraal

0 1

--Link1--
%chk=JID_4086.chk
%mem=8GB
%nprocshared=4
# B3LYP/6-311++G(d,p) empiricaldispersion=gd3bj scf=xqc pop=npa geom=check

CID_59314086_JID_4086_Energie_kation

1 2

--Link1--
%chk=JID_4086.chk
%mem=8GB
%nprocshared=4
# B3LYP/6-311++G(d,p) empiricaldispersion=gd3bj scf=xqc pop=npa geom=check

CID_59314086_JID_4086_Energie_anion

-1 2
