%chk=JID_8307.chk
%mem=8GB
%nprocshared=4
# opt freq B3LYP/6-31G(d) empiricaldispersion=gd3bj scf=xqc

CID_68138362_JID_8307_neutraal

0 1
C          1.08590       -0.04970       -0.01229
N          0.28788       -0.70484        1.00736
C         -0.52857        0.10277        1.85302
C         -0.34520       -0.01849        3.24509
C         -1.01896        0.80546        4.14658
C         -1.88864        1.77554        3.67292
C         -2.09957        1.90071        2.30044
C         -1.44770        1.05989        1.36572
C         -1.85926        1.22448       -0.08752
O         -1.94408       -0.03034       -0.75941
C         -2.40600        0.12707       -2.09550
C         -1.53010        1.10647       -2.87660
C         -1.36739        2.39217       -2.06623
O         -0.95169        2.11649       -0.73312
O         -2.07109        1.37459       -4.16660
C          0.47412       -2.06604        1.17398
O          1.25180       -2.77538        0.54936
O         -0.32494       -2.64954        2.09199
H          1.17444        1.02405        0.17358
H          0.64987       -0.24270       -0.99519
H          2.09885       -0.46747       -0.01078
H          0.36360       -0.74146        3.64274
H         -0.84798        0.69541        5.21387
H         -2.40880        2.42913        4.36803
H         -2.79910        2.66040        1.95536
H         -2.86384        1.67157       -0.10288
H         -3.45364        0.45322       -2.08571
H         -2.39649       -0.85380       -2.58307
H         -0.54006        0.65518       -3.00911
H         -0.61739        3.03793       -2.53576
H         -2.29996        2.97026       -2.04830
H         -2.96387        1.74566       -4.06106
H         -0.07875       -3.59230        2.01595

--Link1--
%chk=JID_8307.chk
%mem=8GB
%nprocshared=4
# B3LYP/6-311++G(d,p) empiricaldispersion=gd3bj scf=xqc pop=npa geom=check

CID_68138362_JID_8307_Energie_neutraal

0 1

--Link1--
%chk=JID_8307.chk
%mem=8GB
%nprocshared=4
# B3LYP/6-311++G(d,p) empiricaldispersion=gd3bj scf=xqc pop=npa geom=check

CID_68138362_JID_8307_Energie_kation

1 2

--Link1--
%chk=JID_8307.chk
%mem=8GB
%nprocshared=4
# B3LYP/6-311++G(d,p) empiricaldispersion=gd3bj scf=xqc pop=npa geom=check

CID_68138362_JID_8307_Energie_anion

-1 2
