%chk=JID_8846.chk
%mem=8GB
%nprocshared=4
# opt freq B3LYP/6-31G(d) empiricaldispersion=gd3bj scf=xqc

CID_127993188_JID_8846_neutraal

0 1
C          2.33000       -0.46200        0.00600
C          1.30204        0.60026        0.13947
C          1.17986        1.59230        1.09123
N          0.10760        2.44801        0.92985
C         -0.56789        2.09741       -0.13360
S          0.01455        0.73575       -0.98617
N         -1.70210        2.63988       -0.67089
C         -2.46641        3.58726       -0.07145
O         -3.69128        3.49309       -0.19482
N         -1.87101        4.65158        0.59053
C         -2.79071        5.52308        1.31551
C         -2.08259        6.39559        2.33787
C         -0.93840        7.16692        1.68697
C          0.06291        6.23468        0.96288
C         -0.72033        5.33221       -0.01858
C          0.87413        5.37352        1.95089
C          1.06879        7.08571        0.16101
O         -0.29235        7.97900        2.66643
H          2.92785       -0.30931       -0.89843
H          3.01084       -0.45680        0.86361
H          1.86621       -1.45249       -0.04560
H          1.85063        1.74322        1.92883
H         -2.21131        2.02234       -1.28478
H         -3.31725        6.14363        0.57910
H         -3.54591        4.91269        1.82517
H         -1.70712        5.78205        3.16570
H         -2.79361        7.09634        2.79195
H         -1.36928        7.86209        0.95476
H         -0.04616        4.62237       -0.50489
H         -1.13276        5.94147       -0.83551
H          1.58473        4.73363        1.41585
H          1.46140        5.99221        2.63795
H          0.23330        4.72381        2.55425
H          0.55563        7.73158       -0.56025
H          1.66444        7.72827        0.81878
H          1.76343        6.45027       -0.40032
H         -0.05818        7.41339        3.42218

--Link1--
%chk=JID_8846.chk
%mem=8GB
%nprocshared=4
# B3LYP/6-311++G(d,p) empiricaldispersion=gd3bj scf=xqc pop=npa geom=check

CID_127993188_JID_8846_Energie_neutraal

0 1

--Link1--
%chk=JID_8846.chk
%mem=8GB
%nprocshared=4
# B3LYP/6-311++G(d,p) empiricaldispersion=gd3bj scf=xqc pop=npa geom=check

CID_127993188_JID_8846_Energie_kation

1 2

--Link1--
%chk=JID_8846.chk
%mem=8GB
%nprocshared=4
# B3LYP/6-311++G(d,p) empiricaldispersion=gd3bj scf=xqc pop=npa geom=check

CID_127993188_JID_8846_Energie_anion

-1 2
