%chk=JID_1087.chk
%mem=8GB
%nprocshared=4
# opt freq B3LYP/6-31G(d) empiricaldispersion=gd3bj scf=xqc

CID_146208387_JID_1087_neutraal

0 1
C          1.44200        0.04700       -0.00300
C          0.72507        1.19777        0.29019
C         -0.63423        1.07616        0.50865
N         -1.30516       -0.09684        0.45426
C         -0.59337       -1.22760        0.17570
C          0.77873       -1.17835       -0.06348
C         -1.36425       -2.49295        0.12554
C         -2.67422       -2.55085       -0.19219
N         -3.51727       -1.51816       -0.55205
C         -0.75570       -3.81509        0.45186
O          0.39540       -3.97179        0.84303
H          2.51224        0.09578       -0.18381
H          1.21319        2.16406        0.34594
H         -1.24145        1.94654        0.74067
H          1.34628       -2.07245       -0.30155
H         -3.21509       -3.49590       -0.20120
H         -4.44487       -1.59248       -0.14084
H         -3.08712       -0.61228       -0.31722
H         -1.41899       -4.68866        0.33047

--Link1--
%chk=JID_1087.chk
%mem=8GB
%nprocshared=4
# B3LYP/6-311++G(d,p) empiricaldispersion=gd3bj scf=xqc pop=npa geom=check

CID_146208387_JID_1087_Energie_neutraal

0 1

--Link1--
%chk=JID_1087.chk
%mem=8GB
%nprocshared=4
# B3LYP/6-311++G(d,p) empiricaldispersion=gd3bj scf=xqc pop=npa geom=check

CID_146208387_JID_1087_Energie_kation

1 2

--Link1--
%chk=JID_1087.chk
%mem=8GB
%nprocshared=4
# B3LYP/6-311++G(d,p) empiricaldispersion=gd3bj scf=xqc pop=npa geom=check

CID_146208387_JID_1087_Energie_anion

-1 2
