%chk=JID_10461.chk
%mem=8GB
%nprocshared=4
# opt freq B3LYP/6-31G(d) empiricaldispersion=gd3bj scf=xqc

CID_127294404_JID_10461_neutraal

0 1
C          1.08300        1.23200        0.26800
C          0.02432        1.37308       -0.82817
S         -1.12748       -0.03663       -0.84834
C          0.12084       -1.35533       -0.95677
C          1.17287       -1.24285        0.14544
N          1.97250        0.03473        0.03316
S          3.35792       -0.01248        1.04516
O          2.91936        0.29935        2.38836
O          4.06248       -1.24617        0.76584
C          4.37603        1.33047        0.45618
C          4.78454        1.17220       -0.99896
N          3.78401        1.67446       -1.93738
C          3.45196        2.98237       -2.10865
O          2.26981        3.27944       -2.27029
N          4.38736        3.94142       -1.93578
C          5.56158        4.05493       -2.64701
N          6.34936        5.10221       -2.54073
N          7.44332        5.02173       -3.37958
C          7.41268        3.92919       -4.11096
S          6.05865        2.91886       -3.82361
H          1.68929        2.14168        0.26272
H          0.60672        1.15860        1.25340
H         -0.55685        2.28652       -0.66869
H          0.48861        1.43807       -1.81633
H          0.59018       -1.30854       -1.94517
H         -0.39566       -2.31720       -0.87868
H          1.84478       -2.10074        0.03266
H          0.70963       -1.30866        1.13774
H          3.87171        2.27705        0.66409
H          5.27283        1.29047        1.08590
H          5.71317        1.72738       -1.14947
H          4.97878        0.12924       -1.26668
H          2.97539        1.07052       -2.05618
H          4.02153        4.85545       -1.70169
H          8.17871        3.69217       -4.83592

--Link1--
%chk=JID_10461.chk
%mem=8GB
%nprocshared=4
# B3LYP/6-311++G(d,p) empiricaldispersion=gd3bj scf=xqc pop=npa geom=check

CID_127294404_JID_10461_Energie_neutraal

0 1

--Link1--
%chk=JID_10461.chk
%mem=8GB
%nprocshared=4
# B3LYP/6-311++G(d,p) empiricaldispersion=gd3bj scf=xqc pop=npa geom=check

CID_127294404_JID_10461_Energie_kation

1 2

--Link1--
%chk=JID_10461.chk
%mem=8GB
%nprocshared=4
# B3LYP/6-311++G(d,p) empiricaldispersion=gd3bj scf=xqc pop=npa geom=check

CID_127294404_JID_10461_Energie_anion

-1 2
