%chk=JID_388.chk
%mem=8GB
%nprocshared=4
# opt freq B3LYP/6-31G(d) empiricaldispersion=gd3bj scf=xqc

CID_20089290_JID_388_neutraal

0 1
C          0.96811       -0.00965       -0.09429
C          0.28332        0.60130        1.12867
C          0.55506        2.10806        1.17283
C         -1.23701        0.34782        1.13757
C         -1.67238       -1.13118        1.14491
C         -1.15756       -1.88700        2.36824
N         -3.12981       -1.21488        1.10952
C         -3.90562       -1.10594        0.00419
O         -5.12299       -1.05167        0.01106
O         -3.21737       -1.05930       -1.14461
H          0.51448        0.34958       -1.02419
H          0.90439       -1.10181       -0.08245
H          2.03176        0.25149       -0.11473
H          0.72932        0.16443        2.02962
H          0.14545        2.61274        0.29116
H          0.10343        2.55890        2.06287
H          1.63122        2.30848        1.20838
H         -1.67310        0.84569        2.01490
H         -1.68236        0.84593        0.26556
H         -1.29460       -1.62965        0.24581
H         -1.47591       -1.40179        3.29754
H         -1.54853       -2.91069        2.38195
H         -0.06571       -1.95272        2.37039
H         -3.64627       -1.15356        1.97677
H         -3.92263       -0.98973       -1.81910

--Link1--
%chk=JID_388.chk
%mem=8GB
%nprocshared=4
# B3LYP/6-311++G(d,p) empiricaldispersion=gd3bj scf=xqc pop=npa geom=check

CID_20089290_JID_388_Energie_neutraal

0 1

--Link1--
%chk=JID_388.chk
%mem=8GB
%nprocshared=4
# B3LYP/6-311++G(d,p) empiricaldispersion=gd3bj scf=xqc pop=npa geom=check

CID_20089290_JID_388_Energie_kation

1 2

--Link1--
%chk=JID_388.chk
%mem=8GB
%nprocshared=4
# B3LYP/6-311++G(d,p) empiricaldispersion=gd3bj scf=xqc pop=npa geom=check

CID_20089290_JID_388_Energie_anion

-1 2
