%chk=JID_7462.chk
%mem=8GB
%nprocshared=4
# opt freq B3LYP/6-31G(d) empiricaldispersion=gd3bj scf=xqc

CID_54405558_JID_7462_neutraal

0 1
C          0.97260        0.09511       -0.01428
C          0.92860       -0.29097        1.46657
C          1.18926        0.84872        2.48050
C          0.21935        2.03829        2.37893
C          0.93009        3.00399        1.46334
O          0.41189        3.94556        0.88901
N          2.25951        2.62659        1.41005
C          2.55140        1.49982        2.25938
C          3.25053        3.27031        0.56929
C          4.44604        3.76678        1.33747
C          4.41920        5.02920        1.94495
C          5.52939        5.49763        2.64841
C          6.66959        4.70391        2.76309
C          6.70137        3.44021        2.17666
C          5.59531        2.97292        1.46643
N         -0.34015       -1.01261        1.85158
O         -1.27782       -0.82734        1.06858
H          0.22656        0.85550       -0.26721
H          0.77264       -0.77740       -0.64780
H          1.95906        0.47139       -0.29992
H          1.70163       -1.05648        1.61792
H          1.14364        0.41978        3.49042
H          0.09128        2.52246        3.35295
H         -0.75807        1.76919        1.97255
H          2.96385        1.88179        3.19976
H          3.27752        0.83022        1.78909
H          3.56214        2.53945       -0.18658
H          2.78998        4.10026        0.02060
H          3.53270        5.65597        1.86326
H          5.50490        6.48385        3.10466
H          7.53429        5.07156        3.30922
H          7.58993        2.82109        2.26850
H          5.63713        1.98707        1.00930

--Link1--
%chk=JID_7462.chk
%mem=8GB
%nprocshared=4
# B3LYP/6-311++G(d,p) empiricaldispersion=gd3bj scf=xqc pop=npa geom=check

CID_54405558_JID_7462_Energie_neutraal

0 1

--Link1--
%chk=JID_7462.chk
%mem=8GB
%nprocshared=4
# B3LYP/6-311++G(d,p) empiricaldispersion=gd3bj scf=xqc pop=npa geom=check

CID_54405558_JID_7462_Energie_kation

1 2

--Link1--
%chk=JID_7462.chk
%mem=8GB
%nprocshared=4
# B3LYP/6-311++G(d,p) empiricaldispersion=gd3bj scf=xqc pop=npa geom=check

CID_54405558_JID_7462_Energie_anion

-1 2
