%chk=JID_8989.chk
%mem=8GB
%nprocshared=4
# opt freq B3LYP/6-31G(d) empiricaldispersion=gd3bj scf=xqc

CID_19298160_JID_8989_neutraal

0 1
C          0.99961        0.01744       -0.09847
C          0.51086        1.09473       -1.02147
O         -0.29697        0.89421       -1.92160
C          1.08727        2.48496       -0.77440
O          1.99084        2.67532        0.02250
O          0.42146        3.36484       -1.56347
N          0.91211        4.66974       -1.36057
C          0.24343        5.53358       -2.06662
C          0.64163        6.97592       -1.96644
C         -0.25152        7.98975       -2.34141
C          0.12527        9.33361       -2.24220
C          1.40102        9.66211       -1.76277
C          2.29745        8.65677       -1.37875
C          1.91245        7.31599       -1.47921
N          1.79849       11.07221       -1.65835
O          0.97262       11.92956       -2.00310
O          2.93662       11.32131       -1.23682
N         -0.79742        5.18508       -2.89747
H          0.50282       -0.92554       -0.34399
H          0.75990        0.27836        0.93540
H          2.07784       -0.11341       -0.21895
H         -1.25400        7.74877       -2.68675
H         -0.58532       10.10561       -2.53187
H          3.28913        8.89472       -0.99854
H          2.61100        6.53785       -1.17450
H         -0.85622        4.18154       -3.04943
H         -0.86282        5.70008       -3.76836

--Link1--
%chk=JID_8989.chk
%mem=8GB
%nprocshared=4
# B3LYP/6-311++G(d,p) empiricaldispersion=gd3bj scf=xqc pop=npa geom=check

CID_19298160_JID_8989_Energie_neutraal

0 1

--Link1--
%chk=JID_8989.chk
%mem=8GB
%nprocshared=4
# B3LYP/6-311++G(d,p) empiricaldispersion=gd3bj scf=xqc pop=npa geom=check

CID_19298160_JID_8989_Energie_kation

1 2

--Link1--
%chk=JID_8989.chk
%mem=8GB
%nprocshared=4
# B3LYP/6-311++G(d,p) empiricaldispersion=gd3bj scf=xqc pop=npa geom=check

CID_19298160_JID_8989_Energie_anion

-1 2
