%chk=JID_9428.chk
%mem=8GB
%nprocshared=4
# opt freq B3LYP/6-31G(d) empiricaldispersion=gd3bj scf=xqc

CID_3480474_JID_9428_neutraal

0 1
C          1.06477       -0.04024       -0.06469
C          0.55481        1.39298       -0.04895
C          0.85460        2.14944       -1.34365
C          0.00635        1.76681       -2.56039
N         -1.43903        2.01533       -2.43749
C         -2.02780        3.35716       -2.71955
C         -2.36161        4.16716       -1.44950
C         -1.32059        5.19239       -1.01178
C         -0.78529        6.02365       -2.16775
C         -0.25974        5.14787       -3.29587
C         -1.33582        4.19796       -3.80824
C         -2.21881        0.91368       -2.03089
O         -1.76285       -0.19491       -1.75955
C         -3.68277        1.05254       -1.91818
C         -4.26033        1.17817       -0.65215
C         -5.64674        1.27421       -0.53650
C         -6.44745        1.22361       -1.67982
C         -5.86744        1.06574       -2.94068
C         -4.48141        0.96935       -3.06288
H          0.61267       -0.62891       -0.86617
H          0.83380       -0.53163        0.88581
H          2.15112       -0.06406       -0.19926
H         -0.51611        1.41217        0.17624
H          1.05133        1.91645        0.77752
H          0.74923        3.21559       -1.14852
H          1.91116        2.00218       -1.60190
H          0.38111        2.28922       -3.44413
H          0.16885        0.70526       -2.78066
H         -3.00051        3.12760       -3.16652
H         -3.28911        4.72147       -1.65034
H         -2.58122        3.50822       -0.60340
H         -0.49611        4.69423       -0.49745
H         -1.76943        5.86085       -0.26677
H          0.01418        6.68141       -1.80822
H         -1.58246        6.67342       -2.54971
H          0.61938        4.59211       -2.95852
H          0.07825        5.78654       -4.12054
H         -0.94003        3.56372       -4.60915
H         -2.10777        4.81899       -4.28513
H         -3.63309        1.19480        0.23534
H         -6.10443        1.37621        0.44427
H         -7.52886        1.29132       -1.58605
H         -6.49714        1.00639       -3.82483
H         -4.02603        0.82559       -4.03895

--Link1--
%chk=JID_9428.chk
%mem=8GB
%nprocshared=4
# B3LYP/6-311++G(d,p) empiricaldispersion=gd3bj scf=xqc pop=npa geom=check

CID_3480474_JID_9428_Energie_neutraal

0 1

--Link1--
%chk=JID_9428.chk
%mem=8GB
%nprocshared=4
# B3LYP/6-311++G(d,p) empiricaldispersion=gd3bj scf=xqc pop=npa geom=check

CID_3480474_JID_9428_Energie_kation

1 2

--Link1--
%chk=JID_9428.chk
%mem=8GB
%nprocshared=4
# B3LYP/6-311++G(d,p) empiricaldispersion=gd3bj scf=xqc pop=npa geom=check

CID_3480474_JID_9428_Energie_anion

-1 2
