%chk=JID_2315.chk
%mem=8GB
%nprocshared=4
# opt freq B3LYP/6-31G(d) empiricaldispersion=gd3bj scf=xqc

CID_141820451_JID_2315_neutraal

0 1
C          0.98649        0.06165       -0.07757
C          0.27821       -0.02711       -1.41841
C          0.99482       -0.97142       -2.36872
C         -2.94688       -0.87049        2.68888
C         -1.98707       -1.83827        3.36705
C         -0.57540       -1.26954        3.46527
O         -0.58308       -0.14567        4.34389
C          0.58359        0.67795        4.22695
C          1.87091       -0.01888        4.67694
O          2.38533       -0.81507        3.60282
C          3.50526       -1.61531        3.97517
C          4.77704       -0.79366        4.08698
H          1.05140       -0.92240        0.39695
H          0.44242        0.73219        0.59454
H          2.00280        0.45096       -0.19586
H         -0.74972       -0.37419       -1.26573
H          0.22216        0.97048       -1.86795
H          1.03387       -1.98550       -1.95809
H          0.47067       -1.01372       -3.32858
H          2.02030       -0.63700       -2.55565
H         -3.03879        0.06173        3.25486
H         -3.94262       -1.31819        2.61148
H         -2.60551       -0.62608        1.67762
H         -2.36696       -2.06233        4.37047
H         -1.96229       -2.77534        2.80002
H          0.08924       -2.03726        3.87436
H         -0.22146       -0.98035        2.47096
H          0.66334        1.04757        3.19847
H          0.40504        1.53852        4.87987
H          2.61355        0.74300        4.93260
H          1.67442       -0.65354        5.54795
H          3.29793       -2.15860        4.90381
H          3.63597       -2.36137        3.18436
H          4.72762       -0.09738        4.92942
H          5.64358       -1.44455        4.23589
H          4.93270       -0.19657        3.18270

--Link1--
%chk=JID_2315.chk
%mem=8GB
%nprocshared=4
# B3LYP/6-311++G(d,p) empiricaldispersion=gd3bj scf=xqc pop=npa geom=check

CID_141820451_JID_2315_Energie_neutraal

0 1

--Link1--
%chk=JID_2315.chk
%mem=8GB
%nprocshared=4
# B3LYP/6-311++G(d,p) empiricaldispersion=gd3bj scf=xqc pop=npa geom=check

CID_141820451_JID_2315_Energie_kation

1 2

--Link1--
%chk=JID_2315.chk
%mem=8GB
%nprocshared=4
# B3LYP/6-311++G(d,p) empiricaldispersion=gd3bj scf=xqc pop=npa geom=check

CID_141820451_JID_2315_Energie_anion

-1 2
