%chk=JID_3045.chk
%mem=8GB
%nprocshared=4
# opt freq B3LYP/6-31G(d) empiricaldispersion=gd3bj scf=xqc

CID_19865015_JID_3045_neutraal

0 1
C          1.08229       -0.05307        0.02031
C          0.23127        1.21212       -0.10294
C          0.39355        1.80964       -1.50337
C         -1.25942        0.94372        0.17793
C         -1.58720        0.41490        1.57854
C         -1.14572        1.28601        2.76523
C         -1.76587        2.69562        2.87548
C         -3.29796        2.64504        2.82525
N         -1.36722        3.34712        4.11094
C         -0.12669        3.74486        4.51348
O          0.07292        3.91554        5.71636
C          0.93529        4.04030        3.49030
O         -1.33753        3.53054        1.82186
H          0.71428       -0.84524       -0.64039
H          1.08139       -0.43510        1.04558
H          2.12430        0.15280       -0.24760
H          0.61009        1.95121        0.61164
H          0.04182        1.11679       -2.27538
H         -0.17573        2.74059       -1.59709
H          1.44428        2.04075       -1.70851
H         -1.83692        1.85698       -0.00611
H         -1.63114        0.21127       -0.55130
H         -2.66774        0.23855        1.63902
H         -1.13244       -0.57615        1.69860
H         -1.38894        0.73101        3.68209
H         -0.05338        1.35306        2.74762
H         -3.70401        1.97961        3.59460
H         -3.72544        3.64233        2.98749
H         -3.65966        2.31823        1.84484
H         -1.93868        3.13793        4.92098
H          1.13809        3.17350        2.86154
H          0.63512        4.89424        2.87791
H          1.86474        4.30123        4.00622
H         -1.64199        4.42267        2.05903

--Link1--
%chk=JID_3045.chk
%mem=8GB
%nprocshared=4
# B3LYP/6-311++G(d,p) empiricaldispersion=gd3bj scf=xqc pop=npa geom=check

CID_19865015_JID_3045_Energie_neutraal

0 1

--Link1--
%chk=JID_3045.chk
%mem=8GB
%nprocshared=4
# B3LYP/6-311++G(d,p) empiricaldispersion=gd3bj scf=xqc pop=npa geom=check

CID_19865015_JID_3045_Energie_kation

1 2

--Link1--
%chk=JID_3045.chk
%mem=8GB
%nprocshared=4
# B3LYP/6-311++G(d,p) empiricaldispersion=gd3bj scf=xqc pop=npa geom=check

CID_19865015_JID_3045_Energie_anion

-1 2
