%chk=JID_9323.chk
%mem=8GB
%nprocshared=4
# opt freq B3LYP/6-31G(d) empiricaldispersion=gd3bj scf=xqc

CID_105902413_JID_9323_neutraal

0 1
C          1.02829        0.08965        0.03409
C         -0.37999       -0.36157       -0.35034
C         -0.41604       -0.80270       -1.82001
C         -1.77876       -1.37817       -2.21827
C         -2.31701       -2.43660       -1.25166
C         -2.26194       -1.96020        0.20132
C         -0.85349       -1.49020        0.57661
N         -2.67948       -3.03689        1.10142
C         -1.83918       -1.87136       -3.65887
O         -2.58293       -1.31379       -4.47193
N         -1.13886       -2.95243       -4.09848
C          0.07042       -3.56199       -3.56013
C          0.30943       -5.02932       -4.01366
C          0.17893       -5.14374       -5.54978
C          1.75922       -5.41373       -3.65195
C         -0.71797       -6.00542       -3.36346
C         -0.42184       -6.49608       -1.94121
O         -0.26044       -5.40564       -1.04262
C          0.08428       -5.84685        0.26486
H          1.36136        0.91164       -0.60830
H          1.75039       -0.72855       -0.06057
H          1.05288        0.44373        1.07009
H         -1.05564        0.49553       -0.22837
H         -0.18629        0.05425       -2.46688
H          0.39179       -1.51718       -1.98887
H         -2.48679       -0.53609       -2.17412
H         -1.76035       -3.37067       -1.35601
H         -3.35289       -2.68131       -1.52324
H         -2.95919       -1.12331        0.33111
H         -0.14827       -2.33090        0.52363
H         -0.84616       -1.13612        1.61568
H         -3.62499       -3.33038        0.85575
H         -2.09095       -3.85428        0.93765
H         -1.29070       -3.06124       -5.09404
H          0.89485       -2.92811       -3.91045
H          0.06935       -3.49775       -2.47428
H          0.79381       -4.39193       -6.05728
H          0.50755       -6.12964       -5.89918
H         -0.85728       -5.01673       -5.88089
H          1.96978       -5.25734       -2.58891
H          1.96117       -6.46443       -3.88827
H          2.47857       -4.80550       -4.21296
H         -1.70732       -5.53018       -3.36820
H         -0.80942       -6.90194       -3.99109
H         -1.25785       -7.11834       -1.60009
H          0.48041       -7.11858       -1.93801
H         -0.70618       -6.48263        0.67470
H          1.03518       -6.38793        0.24831
H          0.19509       -4.96841        0.90612

--Link1--
%chk=JID_9323.chk
%mem=8GB
%nprocshared=4
# B3LYP/6-311++G(d,p) empiricaldispersion=gd3bj scf=xqc pop=npa geom=check

CID_105902413_JID_9323_Energie_neutraal

0 1

--Link1--
%chk=JID_9323.chk
%mem=8GB
%nprocshared=4
# B3LYP/6-311++G(d,p) empiricaldispersion=gd3bj scf=xqc pop=npa geom=check

CID_105902413_JID_9323_Energie_kation

1 2

--Link1--
%chk=JID_9323.chk
%mem=8GB
%nprocshared=4
# B3LYP/6-311++G(d,p) empiricaldispersion=gd3bj scf=xqc pop=npa geom=check

CID_105902413_JID_9323_Energie_anion

-1 2
