%chk=JID_5470.chk
%mem=8GB
%nprocshared=4
# opt freq B3LYP/6-31G(d) empiricaldispersion=gd3bj scf=xqc

CID_64064690_JID_5470_neutraal

0 1
C          2.31200        0.09600        0.01000
C          0.85272        0.21458        0.20419
N          0.12132       -0.84407        0.55818
O         -1.18256       -0.36659        0.64497
N         -1.24120        0.99108        0.35453
C          0.01436        1.33915        0.05273
C          0.38223        2.74335       -0.29279
N         -0.31056        3.27844       -1.48677
C         -0.31964        4.74655       -1.39234
C          0.16649        2.78687       -2.82639
C          1.68558        2.96239       -3.04265
C         -0.16773        1.29519       -3.05103
C         -0.63366        3.50483       -3.95449
O         -1.81940        3.36694       -4.21777
O          0.08937        4.39356       -4.67084
H          2.71057       -0.79512        0.50623
H          2.55091        0.02625       -1.05565
H          2.83308        0.96512        0.42349
H          0.09544        3.33450        0.58950
H          1.46762        2.86386       -0.37260
H          0.68780        5.17262       -1.44251
H         -0.93555        5.20864       -2.16949
H         -0.77333        5.06723       -0.44664
H          2.27312        2.33965       -2.36048
H          1.97205        2.67124       -4.06077
H          2.00386        4.00142       -2.90794
H         -1.19780        1.06509       -2.75414
H         -0.08064        1.02880       -4.11237
H          0.50768        0.62823       -2.51145
H         -0.56876        4.75121       -5.30419

--Link1--
%chk=JID_5470.chk
%mem=8GB
%nprocshared=4
# B3LYP/6-311++G(d,p) empiricaldispersion=gd3bj scf=xqc pop=npa geom=check

CID_64064690_JID_5470_Energie_neutraal

0 1

--Link1--
%chk=JID_5470.chk
%mem=8GB
%nprocshared=4
# B3LYP/6-311++G(d,p) empiricaldispersion=gd3bj scf=xqc pop=npa geom=check

CID_64064690_JID_5470_Energie_kation

1 2

--Link1--
%chk=JID_5470.chk
%mem=8GB
%nprocshared=4
# B3LYP/6-311++G(d,p) empiricaldispersion=gd3bj scf=xqc pop=npa geom=check

CID_64064690_JID_5470_Energie_anion

-1 2
