%chk=JID_10154.chk
%mem=8GB
%nprocshared=4
# opt freq B3LYP/6-31G(d) empiricaldispersion=gd3bj scf=xqc

CID_62262299_JID_10154_neutraal

0 1
C          1.02822        0.06488        0.07067
C          0.49278       -0.80042        1.20755
C          0.53309       -0.15814        2.62517
C         -0.20831        1.23534        2.62219
C         -1.66534        1.24673        2.16915
C         -0.23318       -1.05916        3.65371
N          0.24015       -2.42544        3.84111
C          2.00655        0.14969        3.11844
N          3.15868       -0.59902        2.56924
C          4.43518        0.09263        2.90728
C          4.83966        0.03355        4.40179
N          4.87347       -1.36346        4.88498
C          3.63763       -2.11782        4.57324
C          3.29134       -1.98288        3.07147
C          5.26685       -1.46823        6.23364
C          5.53443       -2.72476        6.78345
C          5.93879       -2.83731        8.11339
C          6.08042       -1.68950        8.87533
C          5.81875       -0.47855        8.26465
N          5.42697       -0.34952        6.97690
H          0.39667        0.94073       -0.10204
H          1.03906       -0.51368       -0.85921
H          2.04847        0.40824        0.25887
H         -0.53844       -1.08321        0.96144
H          1.05338       -1.74120        1.20372
H         -0.16782        1.66080        3.63431
H          0.33773        1.94177        1.98403
H         -2.31106        0.69015        2.85306
H         -2.03382        2.27825        2.15017
H         -1.78592        0.83935        1.16229
H         -0.22672       -0.56775        4.63438
H         -1.28408       -1.14183        3.35746
H         -0.36563       -2.89868        4.51180
H          0.13342       -2.93742        2.96492
H          2.19869        1.19800        2.85128
H          2.01620        0.14371        4.21535
H          5.23412       -0.36820        2.31045
H          4.39660        1.13839        2.57807
H          4.13472        0.63536        4.98983
H          5.83491        0.48624        4.49776
H          2.80746       -1.75937        5.19382
H          3.76853       -3.18587        4.78046
H          2.41529       -2.57850        2.82158
H          4.09938       -2.46047        2.49834
H          5.45792       -3.61886        6.17475
H          6.14951       -3.81334        8.53949
H          6.39538       -1.73474        9.91098
H          5.92151        0.45570        8.80859

--Link1--
%chk=JID_10154.chk
%mem=8GB
%nprocshared=4
# B3LYP/6-311++G(d,p) empiricaldispersion=gd3bj scf=xqc pop=npa geom=check

CID_62262299_JID_10154_Energie_neutraal

0 1

--Link1--
%chk=JID_10154.chk
%mem=8GB
%nprocshared=4
# B3LYP/6-311++G(d,p) empiricaldispersion=gd3bj scf=xqc pop=npa geom=check

CID_62262299_JID_10154_Energie_kation

1 2

--Link1--
%chk=JID_10154.chk
%mem=8GB
%nprocshared=4
# B3LYP/6-311++G(d,p) empiricaldispersion=gd3bj scf=xqc pop=npa geom=check

CID_62262299_JID_10154_Energie_anion

-1 2
