%chk=JID_1297.chk
%mem=8GB
%nprocshared=4
# opt freq B3LYP/6-31G(d) empiricaldispersion=gd3bj scf=xqc

CID_131068375_JID_1297_neutraal

0 1
C          0.96863        0.08877        0.03370
C          0.16088        0.18759        1.33817
C          0.57304        1.48216        2.06491
N         -0.04147        1.76963        3.34485
C         -1.48184        1.97141        3.36691
C         -2.36903        0.74397        3.58231
S         -2.32724       -0.60328        2.35387
C         -1.33607        0.11907        1.00802
C          0.60269        1.31294        4.57395
C          0.82861       -0.19373        4.78473
S          2.50609       -0.74721        4.33500
H          0.72854        0.91326       -0.64640
H          0.75720       -0.85238       -0.48525
H          2.04439        0.11713        0.23788
H          0.44401       -0.68373        1.93798
H          1.66433        1.50289        2.18013
H          0.36304        2.33129        1.39925
H         -1.80324        2.50911        2.46579
H         -1.70498        2.67752        4.17853
H         -3.41091        1.08128        3.62916
H         -2.15709        0.29666        4.55955
H         -1.74462        1.08571        0.69663
H         -1.49030       -0.55861        0.16031
H          1.55043        1.85553        4.68756
H         -0.00269        1.66747        5.41964
H          0.71010       -0.41807        5.85064
H          0.09324       -0.80243        4.25564
H          2.41674       -0.49248        3.02396

--Link1--
%chk=JID_1297.chk
%mem=8GB
%nprocshared=4
# B3LYP/6-311++G(d,p) empiricaldispersion=gd3bj scf=xqc pop=npa geom=check

CID_131068375_JID_1297_Energie_neutraal

0 1

--Link1--
%chk=JID_1297.chk
%mem=8GB
%nprocshared=4
# B3LYP/6-311++G(d,p) empiricaldispersion=gd3bj scf=xqc pop=npa geom=check

CID_131068375_JID_1297_Energie_kation

1 2

--Link1--
%chk=JID_1297.chk
%mem=8GB
%nprocshared=4
# B3LYP/6-311++G(d,p) empiricaldispersion=gd3bj scf=xqc pop=npa geom=check

CID_131068375_JID_1297_Energie_anion

-1 2
