%chk=JID_2856.chk
%mem=8GB
%nprocshared=4
# opt freq B3LYP/6-31G(d) empiricaldispersion=gd3bj scf=xqc

CID_147468777_JID_2856_neutraal

0 1
C          0.98250        0.04282       -0.08866
N          0.61931        0.70177       -1.33778
C         -0.70800        1.35613       -1.21903
C         -0.10712        2.56555       -1.98181
C          1.24345        2.04603       -1.42086
C         -0.58033        3.94147       -1.52693
C          0.23020        5.06291       -2.18743
C         -0.35737        5.68899       -3.45822
C         -0.80229        4.72949       -4.55641
C         -1.57151        5.63696       -5.50784
C         -2.24914        6.67553       -4.61401
C         -1.61298        6.53381       -3.22984
H          0.37534       -0.85866        0.04679
H          0.85174        0.67429        0.79839
H          2.03045       -0.27354       -0.12585
H         -1.51805        0.83718       -1.74052
H         -1.03988        1.58341       -0.19747
H         -0.18033        2.43151       -3.06961
H          1.54002        2.49713       -0.46499
H          2.08755        2.11136       -2.11411
H         -1.65122        4.05316       -1.72329
H         -0.45706        4.02229       -0.43930
H          0.34876        5.87077       -1.45318
H          1.24357        4.70723       -2.41093
H          0.41462        6.35275       -3.87480
H          0.04034        4.23619       -5.04962
H         -1.48093        3.95996       -4.17365
H         -2.29234        5.08091       -6.11484
H         -0.87626        6.13696       -6.19277
H         -3.32964        6.50497       -4.55729
H         -2.09749        7.68260       -5.01753
H         -2.31813        6.03611       -2.55543
H         -1.37475        7.50920       -2.79331

--Link1--
%chk=JID_2856.chk
%mem=8GB
%nprocshared=4
# B3LYP/6-311++G(d,p) empiricaldispersion=gd3bj scf=xqc pop=npa geom=check

CID_147468777_JID_2856_Energie_neutraal

0 1

--Link1--
%chk=JID_2856.chk
%mem=8GB
%nprocshared=4
# B3LYP/6-311++G(d,p) empiricaldispersion=gd3bj scf=xqc pop=npa geom=check

CID_147468777_JID_2856_Energie_kation

1 2

--Link1--
%chk=JID_2856.chk
%mem=8GB
%nprocshared=4
# B3LYP/6-311++G(d,p) empiricaldispersion=gd3bj scf=xqc pop=npa geom=check

CID_147468777_JID_2856_Energie_anion

-1 2
