%chk=JID_4728.chk
%mem=8GB
%nprocshared=4
# opt freq B3LYP/6-31G(d) empiricaldispersion=gd3bj scf=xqc

CID_103275859_JID_4728_neutraal

0 1
C          0.99083        0.06670        0.07394
C          0.52686        0.75386        1.35150
C          0.00241        2.18686        1.13180
C         -1.16977        2.27887        0.13194
C         -2.41047        1.47453        0.49520
N         -0.37789        2.72131        2.44889
C          0.59708        3.69065        3.00246
C          0.35021        5.09803        2.39111
O         -0.84834        5.67579        2.91749
C         -1.83242        6.00683        1.94466
C         -1.44497        7.23131        1.13626
C          0.48094        3.67306        4.55616
C          0.78841        2.28083        5.12868
C          1.41985        4.69063        5.21587
H          0.15749       -0.12181       -0.60881
H          1.44510       -0.90033        0.31314
H          1.73894        0.67203       -0.44740
H         -0.23726        0.13058        1.83226
H          1.37767        0.78571        2.04498
H          0.81699        2.78156        0.69713
H         -1.45855        3.33057        0.01814
H         -0.82661        1.96526       -0.86118
H         -2.82137        1.77750        1.46246
H         -3.18783        1.63446       -0.25940
H         -2.19836        0.40231        0.52753
H         -1.28974        3.17882        2.42382
H          1.61480        3.37235        2.73911
H          1.17769        5.76611        2.65264
H          0.32984        5.04251        1.29630
H         -2.03378        5.14911        1.29683
H         -2.75718        6.22117        2.49060
H         -0.54972        7.04662        0.53520
H         -2.25765        7.51707        0.46187
H         -1.22016        8.07435        1.79711
H         -0.54632        3.92913        4.84841
H          1.79523        1.95230        4.84897
H          0.72824        2.28941        6.22258
H          0.07399        1.53186        4.77303
H          1.14259        5.71763        4.96035
H          1.37470        4.61136        6.30769
H          2.45848        4.52850        4.90856

--Link1--
%chk=JID_4728.chk
%mem=8GB
%nprocshared=4
# B3LYP/6-311++G(d,p) empiricaldispersion=gd3bj scf=xqc pop=npa geom=check

CID_103275859_JID_4728_Energie_neutraal

0 1

--Link1--
%chk=JID_4728.chk
%mem=8GB
%nprocshared=4
# B3LYP/6-311++G(d,p) empiricaldispersion=gd3bj scf=xqc pop=npa geom=check

CID_103275859_JID_4728_Energie_kation

1 2

--Link1--
%chk=JID_4728.chk
%mem=8GB
%nprocshared=4
# B3LYP/6-311++G(d,p) empiricaldispersion=gd3bj scf=xqc pop=npa geom=check

CID_103275859_JID_4728_Energie_anion

-1 2
