%chk=JID_7533.chk
%mem=8GB
%nprocshared=4
# opt freq B3LYP/6-31G(d) empiricaldispersion=gd3bj scf=xqc

CID_113839874_JID_7533_neutraal

0 1
C          1.04938        0.07872        0.03694
C          0.35515       -0.25978       -1.27591
C          1.25873       -0.97513       -2.28345
S          0.93712       -2.77144       -2.44785
C          1.55431       -3.38456       -0.85342
C          3.07017       -3.29077       -0.79591
N          3.60698       -2.23794       -0.25626
C          4.98318       -2.11640       -0.22028
S          5.73000       -0.71759        0.35726
C          5.79869       -3.27922       -0.69773
C          5.17787       -4.34196       -1.23314
N          3.80642       -4.32710       -1.31610
C          5.94520       -5.55295       -1.70748
C          5.58734       -6.84109       -0.96292
C          6.22358       -7.92108       -1.82519
C          6.09351       -7.41832       -3.26196
C          5.72344       -5.93540       -3.17433
H          1.31903       -0.81256        0.60479
H          0.38402        0.67947        0.66579
H          1.95831        0.66266       -0.14021
H         -0.56568       -0.82075       -1.08000
H          0.04262        0.69325       -1.72250
H          1.04301       -0.56455       -3.27686
H          2.32072       -0.78613       -2.10426
H          1.09143       -2.85718       -0.01860
H          1.26790       -4.43805       -0.76804
H          6.87561       -3.22101       -0.59445
H          3.33858       -5.10673       -1.76432
H          7.02247       -5.37595       -1.57078
H          5.97698       -6.85342        0.06009
H          4.50262       -6.99555       -0.91428
H          5.74791       -8.89605       -1.68262
H          7.28390       -8.02807       -1.56653
H          5.31704       -7.97149       -3.80167
H          7.03392       -7.56214       -3.80475
H          4.67866       -5.80480       -3.47961
H          6.33642       -5.32780       -3.84858

--Link1--
%chk=JID_7533.chk
%mem=8GB
%nprocshared=4
# B3LYP/6-311++G(d,p) empiricaldispersion=gd3bj scf=xqc pop=npa geom=check

CID_113839874_JID_7533_Energie_neutraal

0 1

--Link1--
%chk=JID_7533.chk
%mem=8GB
%nprocshared=4
# B3LYP/6-311++G(d,p) empiricaldispersion=gd3bj scf=xqc pop=npa geom=check

CID_113839874_JID_7533_Energie_kation

1 2

--Link1--
%chk=JID_7533.chk
%mem=8GB
%nprocshared=4
# B3LYP/6-311++G(d,p) empiricaldispersion=gd3bj scf=xqc pop=npa geom=check

CID_113839874_JID_7533_Energie_anion

-1 2
