%chk=JID_6711.chk
%mem=8GB
%nprocshared=4
# opt freq B3LYP/6-31G(d) empiricaldispersion=gd3bj scf=xqc

CID_66074374_JID_6711_neutraal

0 1
C          0.93332        0.06505        0.03637
C          0.12884        1.39169        0.05070
C          0.90004        2.40224       -0.83423
O          1.60244        3.30879       -0.39110
N          0.77447        2.23710       -2.19172
C         -0.31173        1.65925       -2.79505
O         -0.56247        1.88142       -3.97798
C         -1.16040        0.72715       -1.93824
N         -1.23180        1.14704       -0.51295
C         -2.35303        2.09333       -0.26459
C         -3.06295        1.87202        1.09353
C         -3.04716        3.04751        2.06376
N         -3.28269        4.32404        1.40102
C         -2.22312        4.58926        0.43522
C         -2.21628        3.56863       -0.69473
C          0.14607        1.86956        1.50850
H          1.16235       -0.29118       -0.97332
H          0.39442       -0.72903        0.56626
H          1.90539        0.19147        0.52946
H          1.26501        2.91630       -2.75568
H         -0.74015       -0.28115       -2.01767
H         -2.15721        0.65597       -2.38893
H         -3.13230        1.72224       -0.94861
H         -4.11794        1.64271        0.88019
H         -2.68541        0.97374        1.59691
H         -2.11227        3.08567        2.63010
H         -3.83123        2.89540        2.81507
H         -4.18717        4.30897        0.92986
H         -1.24995        4.63625        0.93325
H         -2.38316        5.58703        0.00992
H         -1.34008        3.73992       -1.32299
H         -3.06907        3.79886       -1.35072
H         -0.43699        1.21112        2.15985
H          1.16841        1.88571        1.90759
H         -0.21709        2.89099        1.60646

--Link1--
%chk=JID_6711.chk
%mem=8GB
%nprocshared=4
# B3LYP/6-311++G(d,p) empiricaldispersion=gd3bj scf=xqc pop=npa geom=check

CID_66074374_JID_6711_Energie_neutraal

0 1

--Link1--
%chk=JID_6711.chk
%mem=8GB
%nprocshared=4
# B3LYP/6-311++G(d,p) empiricaldispersion=gd3bj scf=xqc pop=npa geom=check

CID_66074374_JID_6711_Energie_kation

1 2

--Link1--
%chk=JID_6711.chk
%mem=8GB
%nprocshared=4
# B3LYP/6-311++G(d,p) empiricaldispersion=gd3bj scf=xqc pop=npa geom=check

CID_66074374_JID_6711_Energie_anion

-1 2
