%chk=JID_4761.chk
%mem=8GB
%nprocshared=4
# opt freq B3LYP/6-31G(d) empiricaldispersion=gd3bj scf=xqc

CID_12039484_JID_4761_neutraal

0 1
C          1.06594       -0.05072       -0.05549
C          1.62702       -1.42233        0.27393
O          1.92798       -1.52251        1.67183
C          3.13720       -1.01539        2.05533
O          3.93993       -0.49269        1.29001
C          3.38053       -1.14941        3.48604
C          2.60069       -1.77367        4.43483
C          1.33318       -2.52661        4.55691
C          1.10005       -2.51901        6.08698
C          2.48243       -2.30602        6.72342
N          3.21665       -1.66581        5.64659
C          4.38023       -0.98245        5.55912
C          4.51560       -0.64919        4.21820
C          5.25504       -0.70823        6.72291
H          0.19515        0.16869        0.57101
H          0.76762        0.00302       -1.10633
H          1.80271        0.73515        0.13740
H          0.87353       -2.18644        0.05577
H          2.50597       -1.65591       -0.33783
H          1.45999       -3.55073        4.19089
H          0.50080       -2.05381        4.02913
H          0.44930       -1.67379        6.34712
H          0.60940       -3.43042        6.44170
H          2.45399       -1.64665        7.59384
H          2.98646       -3.24954        6.95174
H          5.34366       -0.09782        3.78811
H          4.72135       -0.12113        7.47709
H          5.59038       -1.64319        7.18282
H          6.14219       -0.14248        6.42077

--Link1--
%chk=JID_4761.chk
%mem=8GB
%nprocshared=4
# B3LYP/6-311++G(d,p) empiricaldispersion=gd3bj scf=xqc pop=npa geom=check

CID_12039484_JID_4761_Energie_neutraal

0 1

--Link1--
%chk=JID_4761.chk
%mem=8GB
%nprocshared=4
# B3LYP/6-311++G(d,p) empiricaldispersion=gd3bj scf=xqc pop=npa geom=check

CID_12039484_JID_4761_Energie_kation

1 2

--Link1--
%chk=JID_4761.chk
%mem=8GB
%nprocshared=4
# B3LYP/6-311++G(d,p) empiricaldispersion=gd3bj scf=xqc pop=npa geom=check

CID_12039484_JID_4761_Energie_anion

-1 2
