%chk=JID_1436.chk
%mem=8GB
%nprocshared=4
# opt freq B3LYP/6-31G(d) empiricaldispersion=gd3bj scf=xqc

CID_138601271_JID_1436_neutraal

0 1
C          1.06717       -0.04256        0.06064
S          1.35732       -1.80323       -0.24184
N          0.93769       -1.88572       -1.84305
C         -0.44781       -2.11376       -2.28947
C         -0.32745       -1.79993       -3.78400
C          1.12198       -2.14337       -4.13985
C          1.74129       -2.63221       -2.82669
C          1.55721       -4.14686       -2.62590
C          0.08697       -4.56792       -2.72076
C         -0.85529       -3.57506       -2.03224
O         -0.08871       -5.87196       -2.17447
H          0.01393        0.20486       -0.09749
H          1.68509        0.56583       -0.60558
H          1.32984        0.19446        1.09492
H         -1.15982       -1.43128       -1.81183
H         -1.04320       -2.35944       -4.39501
H         -0.50000       -0.73196       -3.96603
H          1.63184       -1.23728       -4.48985
H          1.18208       -2.88698       -4.94121
H          2.80426       -2.36866       -2.78345
H          1.97420       -4.45428       -1.65822
H          2.13553       -4.69884       -3.37763
H         -0.19102       -4.64198       -3.77851
H         -0.88800       -3.77491       -0.95342
H         -1.87854       -3.74826       -2.38885
H          0.16284       -5.83226       -1.23486

--Link1--
%chk=JID_1436.chk
%mem=8GB
%nprocshared=4
# B3LYP/6-311++G(d,p) empiricaldispersion=gd3bj scf=xqc pop=npa geom=check

CID_138601271_JID_1436_Energie_neutraal

0 1

--Link1--
%chk=JID_1436.chk
%mem=8GB
%nprocshared=4
# B3LYP/6-311++G(d,p) empiricaldispersion=gd3bj scf=xqc pop=npa geom=check

CID_138601271_JID_1436_Energie_kation

1 2

--Link1--
%chk=JID_1436.chk
%mem=8GB
%nprocshared=4
# B3LYP/6-311++G(d,p) empiricaldispersion=gd3bj scf=xqc pop=npa geom=check

CID_138601271_JID_1436_Energie_anion

-1 2
