%chk=JID_7781.chk
%mem=8GB
%nprocshared=4
# opt freq B3LYP/6-31G(d) empiricaldispersion=gd3bj scf=xqc

CID_64404571_JID_7781_neutraal

0 1
C          0.99377        0.06911       -0.07201
C          0.79650       -0.83068        1.13749
C          1.42061       -0.27665        2.42594
C          0.84140        1.06867        2.91662
C         -0.69057        0.98350        3.17883
O         -1.03732       -0.15835        3.96674
C         -2.42818       -0.19522        4.25070
N          1.49094        1.67519        4.09680
C          2.53803        2.66333        3.84745
C          3.90255        2.02468        3.56802
C          4.34063        0.98504        4.59014
C          3.19729        0.13037        5.12924
C          1.82852        0.83048        5.24218
C          1.70639        1.72365        6.49259
C          2.47660        3.05195        6.43778
C          2.52955        3.66035        5.02561
N          3.81157        2.93210        7.03184
H          0.43209        1.00251        0.02544
H          0.63910       -0.43556       -0.97651
H          2.05141        0.31293       -0.21320
H         -0.27131       -1.02864        1.27901
H          1.26245       -1.80074        0.92440
H          1.29324       -1.04398        3.19818
H          2.49705       -0.17619        2.25411
H          0.94005        1.79428        2.10000
H         -1.03711        1.89760        3.67870
H         -1.21876        0.92042        2.21954
H         -2.72515        0.68530        4.82849
H         -3.00744       -0.25162        3.32407
H         -2.63445       -1.08851        4.84621
H          2.27965        3.26306        2.96415
H          4.67255        2.80220        3.49092
H          3.87033        1.54745        2.58101
H          5.09855        0.33185        4.13921
H          4.86339        1.47477        5.41353
H          3.09944       -0.74065        4.47256
H          3.48728       -0.28330        6.10329
H          1.07448        0.04532        5.37220
H          1.97109        1.15314        7.39237
H          0.64167        1.97227        6.61736
H          1.94502        3.76463        7.08230
H          3.36710        4.36372        4.93151
H          1.62602        4.27911        4.91668
H          4.24662        3.85240        7.08310
H          3.72928        2.60062        7.99204

--Link1--
%chk=JID_7781.chk
%mem=8GB
%nprocshared=4
# B3LYP/6-311++G(d,p) empiricaldispersion=gd3bj scf=xqc pop=npa geom=check

CID_64404571_JID_7781_Energie_neutraal

0 1

--Link1--
%chk=JID_7781.chk
%mem=8GB
%nprocshared=4
# B3LYP/6-311++G(d,p) empiricaldispersion=gd3bj scf=xqc pop=npa geom=check

CID_64404571_JID_7781_Energie_kation

1 2

--Link1--
%chk=JID_7781.chk
%mem=8GB
%nprocshared=4
# B3LYP/6-311++G(d,p) empiricaldispersion=gd3bj scf=xqc pop=npa geom=check

CID_64404571_JID_7781_Energie_anion

-1 2
