%chk=JID_10009.chk
%mem=8GB
%nprocshared=4
# opt freq B3LYP/6-31G(d) empiricaldispersion=gd3bj scf=xqc

CID_119295076_JID_10009_neutraal

0 1
C          1.30600        0.17900       -0.14100
C          0.74632       -1.11708       -0.70957
C         -0.64594       -0.75617       -1.21578
N         -0.77586        0.70680       -1.04568
C          0.07741        1.03725        0.09388
C         -0.94646       -1.20169       -2.65442
O         -1.76292       -2.10563       -2.86599
N         -0.32303       -0.66627       -3.73919
C          0.68424        0.37085       -3.82611
C          2.03092       -0.23251       -3.93056
C          2.53005       -1.46444       -4.28074
C          3.93957       -1.35365       -4.12705
N          4.25386       -0.10949       -3.72668
O          3.06880        0.58177       -3.60963
C          4.96656       -2.37986       -4.33730
C          6.30225       -2.13620       -3.97761
C          7.28630       -3.11069       -4.16576
C          6.94947       -4.34336       -4.71797
C          5.63052       -4.60194       -5.08275
C          4.64496       -3.62744       -4.89398
H          1.87935        0.01326        0.77600
H          1.97029        0.65452       -0.87170
H          0.66178       -1.85886        0.09418
H          1.40664       -1.54120       -1.46932
H         -1.39169       -1.24000       -0.57021
H         -1.74814        0.95066       -0.85888
H         -0.41547        0.76457        1.03439
H          0.31951        2.10318        0.12063
H         -0.63662       -1.07646       -4.60849
H          0.47146        0.94293       -4.73534
H          0.63104        1.05726       -2.98370
H          1.95215       -2.32638       -4.57671
H          6.59073       -1.18097       -3.54208
H          8.31428       -2.90347       -3.87946
H          7.71462       -5.10136       -4.86449
H          5.36663       -5.56365       -5.51579
H          3.62823       -3.86463       -5.19422

--Link1--
%chk=JID_10009.chk
%mem=8GB
%nprocshared=4
# B3LYP/6-311++G(d,p) empiricaldispersion=gd3bj scf=xqc pop=npa geom=check

CID_119295076_JID_10009_Energie_neutraal

0 1

--Link1--
%chk=JID_10009.chk
%mem=8GB
%nprocshared=4
# B3LYP/6-311++G(d,p) empiricaldispersion=gd3bj scf=xqc pop=npa geom=check

CID_119295076_JID_10009_Energie_kation

1 2

--Link1--
%chk=JID_10009.chk
%mem=8GB
%nprocshared=4
# B3LYP/6-311++G(d,p) empiricaldispersion=gd3bj scf=xqc pop=npa geom=check

CID_119295076_JID_10009_Energie_anion

-1 2
