%chk=JID_4143.chk
%mem=8GB
%nprocshared=4
# opt freq B3LYP/6-31G(d) empiricaldispersion=gd3bj scf=xqc

CID_79249093_JID_4143_neutraal

0 1
C          1.06829        0.03336        0.06499
C          0.83029       -1.33486        0.67547
O          1.35789       -1.38276        2.00875
C          2.67204       -1.74203        2.11286
O          3.42090       -1.94016        1.16365
C          3.13439       -1.77345        3.57900
C          3.55596       -0.35862        3.97301
N          2.05688       -2.30452        4.45346
C          2.53436       -2.67819        5.80425
C          1.71895       -1.87645        6.85029
O          0.32893       -2.18731        6.79432
C          2.39385       -4.22076        5.98248
C          3.21450       -4.99867        4.94339
C          2.82188       -4.67794        7.38258
H          0.63548        0.81602        0.69672
H          0.62161        0.09664       -0.93125
H          2.13864        0.24688       -0.01725
H         -0.24577       -1.52185        0.75074
H          1.25129       -2.13134        0.05096
H          3.99465       -2.45260        3.61232
H          2.70592        0.33323        3.94827
H          3.98836       -0.32841        4.97777
H          4.30768        0.02883        3.27615
H          1.32532       -1.59142        4.49812
H          3.58943       -2.40845        5.94054
H          2.07370       -2.06436        7.86756
H          1.82638       -0.80064        6.67053
H          0.15429       -2.58950        5.92386
H          1.34290       -4.50954        5.84900
H          4.27493       -4.72985        4.99498
H          3.13178       -6.07808        5.11207
H          2.86008       -4.80712        3.92581
H          2.15393       -4.28451        8.15438
H          2.78980       -5.77017        7.46296
H          3.84248       -4.35282        7.61065

--Link1--
%chk=JID_4143.chk
%mem=8GB
%nprocshared=4
# B3LYP/6-311++G(d,p) empiricaldispersion=gd3bj scf=xqc pop=npa geom=check

CID_79249093_JID_4143_Energie_neutraal

0 1

--Link1--
%chk=JID_4143.chk
%mem=8GB
%nprocshared=4
# B3LYP/6-311++G(d,p) empiricaldispersion=gd3bj scf=xqc pop=npa geom=check

CID_79249093_JID_4143_Energie_kation

1 2

--Link1--
%chk=JID_4143.chk
%mem=8GB
%nprocshared=4
# B3LYP/6-311++G(d,p) empiricaldispersion=gd3bj scf=xqc pop=npa geom=check

CID_79249093_JID_4143_Energie_anion

-1 2
