%chk=JID_8812.chk
%mem=8GB
%nprocshared=4
# opt freq B3LYP/6-31G(d) empiricaldispersion=gd3bj scf=xqc

CID_113474779_JID_8812_neutraal

0 1
C          1.01568       -0.04865        0.08595
C          0.32282       -1.02203       -0.88259
C         -0.35861       -2.12618       -0.05002
C         -0.76208       -0.28102       -1.68245
N          1.32147       -1.69691       -1.73859
C          1.89927       -0.88024       -2.80210
C          3.16582       -1.44698       -3.50819
C          4.43805       -1.31413       -2.63322
C          4.45071       -2.02350       -1.27949
C          4.57077       -3.54149       -1.31542
C          3.58272       -4.26864       -2.21926
C          3.83534       -3.99226       -3.69367
C          3.08150       -2.79123       -4.30452
C          1.68042       -3.22780       -4.79438
C          1.09170       -2.32959       -5.88927
C         -0.24763       -2.82908       -6.44098
S         -1.60171       -2.77208       -5.21900
C         -1.67774       -4.52581       -4.77214
H          0.29568        0.37217        0.79776
H          1.48114        0.79389       -0.43553
H          1.79395       -0.55342        0.66991
H         -0.88959       -2.84071       -0.69049
H          0.37116       -2.68797        0.54499
H         -1.09230       -1.70090        0.64486
H         -0.35486        0.57739       -2.22792
H         -1.24621       -0.94512       -2.40656
H         -1.54367        0.10483       -1.01741
H          0.88907       -2.51848       -2.15243
H          1.13175       -0.68365       -3.55445
H          2.17905        0.10275       -2.40601
H          3.33206       -0.70383       -4.30684
H          5.31935       -1.61410       -3.21400
H          4.58197       -0.24349       -2.43044
H          3.58446       -1.73696       -0.67946
H          5.31458       -1.64604       -0.71576
H          4.44923       -3.91877       -0.29217
H          5.59314       -3.80953       -1.61206
H          2.54802       -4.06244       -1.93695
H          3.72920       -5.34398       -2.05245
H          3.58042       -4.89732       -4.26056
H          4.91255       -3.86233       -3.86402
H          3.64706       -2.59868       -5.23106
H          1.75198       -4.23670       -5.22208
H          0.99862       -3.31822       -3.94969
H          0.98398       -1.29662       -5.54807
H          1.80117       -2.29483       -6.72613
H         -0.54508       -2.17900       -7.27087
H         -0.14802       -3.83979       -6.85053
H         -1.94313       -5.12815       -5.64482
H         -0.72503       -4.87117       -4.36501
H         -2.44766       -4.66655       -4.00864

--Link1--
%chk=JID_8812.chk
%mem=8GB
%nprocshared=4
# B3LYP/6-311++G(d,p) empiricaldispersion=gd3bj scf=xqc pop=npa geom=check

CID_113474779_JID_8812_Energie_neutraal

0 1

--Link1--
%chk=JID_8812.chk
%mem=8GB
%nprocshared=4
# B3LYP/6-311++G(d,p) empiricaldispersion=gd3bj scf=xqc pop=npa geom=check

CID_113474779_JID_8812_Energie_kation

1 2

--Link1--
%chk=JID_8812.chk
%mem=8GB
%nprocshared=4
# B3LYP/6-311++G(d,p) empiricaldispersion=gd3bj scf=xqc pop=npa geom=check

CID_113474779_JID_8812_Energie_anion

-1 2
