%chk=JID_5798.chk
%mem=8GB
%nprocshared=4
# opt freq B3LYP/6-31G(d) empiricaldispersion=gd3bj scf=xqc

CID_151219669_JID_5798_neutraal

0 1
C          1.08348        0.03791        0.03993
C          0.37236        1.38138        0.25613
C          0.62542        2.28282       -0.95614
C         -1.12265        1.10692        0.45849
O          1.00427        1.94272        1.43458
C          0.53323        3.08230        2.00233
O         -0.43155        3.73292        1.62682
C          1.39767        3.48047        3.17216
C          0.87827        2.97547        4.51855
C          1.10752        1.47412        4.83703
C          2.57622        1.07067        4.64072
C          0.68800        1.21947        6.29608
N          0.21978        0.69381        3.95246
N          0.32233       -0.54685        3.95192
N          0.41706       -1.68254        3.94824
H          0.71518       -0.47864       -0.85268
H          0.94285       -0.62195        0.90344
H          2.16525        0.18127       -0.06569
H          0.27012        1.81828       -1.88204
H          0.12244        3.24945       -0.85188
H          1.69468        2.49856       -1.06343
H         -1.30077        0.57639        1.39958
H         -1.70931        2.02934        0.49724
H         -1.52916        0.50506       -0.36189
H          2.43756        3.19645        2.98379
H          1.40383        4.57848        3.18546
H          1.37298        3.57173        5.29715
H         -0.19458        3.20029        4.59245
H          3.24645        1.75720        5.16965
H          2.77056        0.06332        5.02656
H          2.85773        1.06119        3.58250
H         -0.36925        1.46371        6.45043
H          0.82210        0.16831        6.57562
H          1.28167        1.82437        6.99027

--Link1--
%chk=JID_5798.chk
%mem=8GB
%nprocshared=4
# B3LYP/6-311++G(d,p) empiricaldispersion=gd3bj scf=xqc pop=npa geom=check

CID_151219669_JID_5798_Energie_neutraal

0 1

--Link1--
%chk=JID_5798.chk
%mem=8GB
%nprocshared=4
# B3LYP/6-311++G(d,p) empiricaldispersion=gd3bj scf=xqc pop=npa geom=check

CID_151219669_JID_5798_Energie_kation

1 2

--Link1--
%chk=JID_5798.chk
%mem=8GB
%nprocshared=4
# B3LYP/6-311++G(d,p) empiricaldispersion=gd3bj scf=xqc pop=npa geom=check

CID_151219669_JID_5798_Energie_anion

-1 2
