%chk=JID_7045.chk
%mem=8GB
%nprocshared=4
# opt freq B3LYP/6-31G(d) empiricaldispersion=gd3bj scf=xqc

CID_83918979_JID_7045_neutraal

0 1
C          1.06912       -0.00097        0.07226
C          0.49990       -0.34122       -1.29948
C          1.22144       -1.51683       -1.97536
N          0.56204       -2.82989       -1.84816
C          0.36337       -3.26612       -0.46359
C         -0.44298       -4.57414       -0.41716
C          0.09375       -5.63114       -1.33371
C          0.93292       -5.28013       -2.37902
C          1.36741       -3.83981       -2.57716
N          1.48199       -6.19009       -3.21580
C          1.16718       -7.47963       -3.02131
N          0.34314       -7.91928       -2.06528
C         -0.19902       -6.98378       -1.24821
C         -1.11827       -7.56426       -0.21761
O         -1.04154       -8.67320        0.28013
O         -2.14752       -6.75276        0.10025
C          1.79705       -8.48932       -3.92787
H          0.99205       -0.83158        0.77690
H          0.53042        0.85114        0.49927
H          2.12510        0.27818       -0.00607
H         -0.57812       -0.52768       -1.22926
H          0.61333        0.54633       -1.93500
H          1.26418       -1.28170       -3.04733
H          2.26099       -1.56372       -1.62543
H          1.32683       -3.39396        0.04734
H         -0.21727       -2.52978        0.10036
H         -0.43398       -4.92985        0.61956
H         -1.48133       -4.36095       -0.70118
H          1.31970       -3.61937       -3.65083
H          2.42010       -3.78331       -2.26855
H         -2.68535       -7.30302        0.70877
H          1.53179       -8.27498       -4.96725
H          2.88574       -8.45276       -3.82467
H          1.45996       -9.50156       -3.68475

--Link1--
%chk=JID_7045.chk
%mem=8GB
%nprocshared=4
# B3LYP/6-311++G(d,p) empiricaldispersion=gd3bj scf=xqc pop=npa geom=check

CID_83918979_JID_7045_Energie_neutraal

0 1

--Link1--
%chk=JID_7045.chk
%mem=8GB
%nprocshared=4
# B3LYP/6-311++G(d,p) empiricaldispersion=gd3bj scf=xqc pop=npa geom=check

CID_83918979_JID_7045_Energie_kation

1 2

--Link1--
%chk=JID_7045.chk
%mem=8GB
%nprocshared=4
# B3LYP/6-311++G(d,p) empiricaldispersion=gd3bj scf=xqc pop=npa geom=check

CID_83918979_JID_7045_Energie_anion

-1 2
