%chk=JID_6651.chk
%mem=8GB
%nprocshared=4
# opt freq B3LYP/6-31G(d) empiricaldispersion=gd3bj scf=xqc

CID_143445548_JID_6651_neutraal

0 1
C          1.04196       -0.05193       -0.07445
C          0.51468        1.37656       -0.06251
C          0.59201        2.06292       -1.44197
C         -0.19883        1.33453       -2.55118
O         -1.50109        0.95207       -2.10208
C         -2.23116        0.27970       -3.11900
C          0.19190        3.53094       -1.33015
C          1.15340        4.53718       -1.53453
C          0.83971        5.90705       -1.43918
C         -0.49016        6.24383       -1.13950
C         -1.45821        5.26195       -0.92631
C         -1.11777        3.91422       -1.01839
C          1.89006        6.97515       -1.68568
C          2.11549        8.04474       -0.64161
C          3.14633        6.97727       -0.84512
N          2.02293        7.37447       -3.09324
H          0.41599       -0.70631       -0.68816
H          1.04809       -0.45776        0.94232
H          2.06580       -0.08951       -0.45957
H         -0.51395        1.37216        0.31792
H          1.10529        1.95435        0.66055
H          1.64385        2.04184       -1.76078
H         -0.28800        1.97175       -3.44003
H          0.34527        0.42751       -2.84178
H         -2.37120        0.93250       -3.98584
H         -1.71581       -0.63850       -3.41678
H         -3.21342        0.01450       -2.71900
H          2.17935        4.26073       -1.77309
H         -0.77382        7.29165       -1.06779
H         -2.47928        5.54762       -0.68785
H         -1.88591        3.16290       -0.84577
H          2.35382        9.04743       -0.97750
H          1.53868        8.01499        0.27536
H          3.25706        6.23400       -0.06418
H          4.07982        7.26101       -1.31721
H          1.12332        7.71128       -3.43475
H          2.23456        6.55416       -3.65983

--Link1--
%chk=JID_6651.chk
%mem=8GB
%nprocshared=4
# B3LYP/6-311++G(d,p) empiricaldispersion=gd3bj scf=xqc pop=npa geom=check

CID_143445548_JID_6651_Energie_neutraal

0 1

--Link1--
%chk=JID_6651.chk
%mem=8GB
%nprocshared=4
# B3LYP/6-311++G(d,p) empiricaldispersion=gd3bj scf=xqc pop=npa geom=check

CID_143445548_JID_6651_Energie_kation

1 2

--Link1--
%chk=JID_6651.chk
%mem=8GB
%nprocshared=4
# B3LYP/6-311++G(d,p) empiricaldispersion=gd3bj scf=xqc pop=npa geom=check

CID_143445548_JID_6651_Energie_anion

-1 2
