%chk=JID_8156.chk
%mem=8GB
%nprocshared=4
# opt freq B3LYP/6-31G(d) empiricaldispersion=gd3bj scf=xqc

CID_118512885_JID_8156_neutraal

0 1
C          0.96950        0.01003        0.09470
C          1.17130       -0.87949        1.29697
C          1.79219       -0.20844        2.53286
C          1.21663        1.16771        2.98371
C         -0.34000        1.14688        2.98564
C         -1.04708        0.01613        3.75151
C         -1.05719        0.17310        5.25914
C         -1.56386        1.56181        5.61296
C         -1.99848        2.75304        5.91646
C          1.80555        1.71105        4.30892
C          2.45276        0.83068        5.21044
C          2.99504        1.26048        6.42513
C          2.92774        2.59533        6.77801
C          2.32172        3.49716        5.91133
C          1.74234        3.08769        4.68522
C          1.18916        4.18836        3.79399
N          0.45368        5.21714        4.53916
O          1.68153        2.09997        1.98636
H          0.13667        0.70593        0.18349
H          0.74313       -0.61398       -0.77802
H          1.88030        0.56780       -0.14476
H          0.21214       -1.34208        1.54937
H          1.82724       -1.71129        1.00921
H          1.69892       -0.95107        3.33207
H          2.86749       -0.08991        2.33863
H         -0.73271        2.11781        3.29988
H         -0.70546        1.08125        1.95758
H         -2.09051       -0.00258        3.40657
H         -0.63886       -0.96616        3.50272
H         -1.72570       -0.57180        5.70551
H         -0.06947        0.01489        5.69407
H         -2.35968        3.71848        6.18613
H          2.55362       -0.22877        4.99964
H          3.47675        0.54660        7.08785
H          3.35530        2.94198        7.71398
H          2.30507        4.55037        6.19027
H          2.02454        4.65798        3.26276
H          0.49304        3.81013        3.04747
H          0.03092        5.86028        3.87386
H         -0.31261        4.75690        5.02700
H          0.97141        2.25702        1.34592

--Link1--
%chk=JID_8156.chk
%mem=8GB
%nprocshared=4
# B3LYP/6-311++G(d,p) empiricaldispersion=gd3bj scf=xqc pop=npa geom=check

CID_118512885_JID_8156_Energie_neutraal

0 1

--Link1--
%chk=JID_8156.chk
%mem=8GB
%nprocshared=4
# B3LYP/6-311++G(d,p) empiricaldispersion=gd3bj scf=xqc pop=npa geom=check

CID_118512885_JID_8156_Energie_kation

1 2

--Link1--
%chk=JID_8156.chk
%mem=8GB
%nprocshared=4
# B3LYP/6-311++G(d,p) empiricaldispersion=gd3bj scf=xqc pop=npa geom=check

CID_118512885_JID_8156_Energie_anion

-1 2
