%chk=JID_8847.chk
%mem=8GB
%nprocshared=4
# opt freq B3LYP/6-31G(d) empiricaldispersion=gd3bj scf=xqc

CID_150157508_JID_8847_neutraal

0 1
C          1.08551        0.03696       -0.03637
C          0.32691        0.60551       -1.24552
C          0.59650       -0.28177       -2.46470
C         -1.16480        0.66099       -0.89577
O          0.89098        1.92696       -1.44650
C          0.38025        2.75528       -2.39116
O         -0.56658        2.53971       -3.13364
N          1.07175        3.99265       -2.39735
C          2.27369        4.37930       -1.79588
C          2.40515        5.73534       -2.01760
C          1.30168        6.07783       -2.80978
N          0.51881        5.04345       -3.08014
N          0.96800        7.32005       -3.34588
N          1.68223        8.26744       -2.98773
N          2.33941        9.14184       -2.66125
C          3.29134        3.50087       -1.06745
C          4.76206        3.85670       -1.16888
C          4.04118        4.07450        0.11656
H          0.75590       -0.97762        0.21085
H          0.94401        0.67259        0.84560
H          2.16446        0.01223       -0.22900
H          0.29808       -1.31890       -2.27860
H          0.05328        0.06788       -3.34820
H          1.66052       -0.26746       -2.72738
H         -1.35312        1.39881       -0.10808
H         -1.77803        0.95011       -1.75431
H         -1.52940       -0.31434       -0.55516
H          3.21170        6.37011       -1.67989
H          3.07908        2.43853       -1.02852
H          5.47315        3.03862       -1.22166
H          5.06815        4.72386       -1.74179
H          3.84554        5.09266        0.43116
H          4.26148        3.40535        0.94183

--Link1--
%chk=JID_8847.chk
%mem=8GB
%nprocshared=4
# B3LYP/6-311++G(d,p) empiricaldispersion=gd3bj scf=xqc pop=npa geom=check

CID_150157508_JID_8847_Energie_neutraal

0 1

--Link1--
%chk=JID_8847.chk
%mem=8GB
%nprocshared=4
# B3LYP/6-311++G(d,p) empiricaldispersion=gd3bj scf=xqc pop=npa geom=check

CID_150157508_JID_8847_Energie_kation

1 2

--Link1--
%chk=JID_8847.chk
%mem=8GB
%nprocshared=4
# B3LYP/6-311++G(d,p) empiricaldispersion=gd3bj scf=xqc pop=npa geom=check

CID_150157508_JID_8847_Energie_anion

-1 2
