%chk=JID_7970.chk
%mem=8GB
%nprocshared=4
# opt freq B3LYP/6-31G(d) empiricaldispersion=gd3bj scf=xqc

CID_127897967_JID_7970_neutraal

0 1
C         -1.35300       -1.21400        0.30700
C          0.00121       -1.27333       -0.38955
C          0.97480       -0.37036        0.32815
C          1.80836       -0.96025        1.44771
C          2.45495       -0.61936        0.13415
C          0.49821        1.05919        0.46169
N         -0.83899        1.09384        1.04412
C         -1.83788        0.22796        0.41725
C         -1.17615        2.22972        1.78006
O         -0.40300        3.16259        1.98830
C         -2.58950        2.34745        2.32730
C         -3.05743        1.31718        3.34633
C         -2.72065        2.69617        3.80711
N         -3.55344        2.92350        1.42254
C         -3.56154        4.19084        0.93263
O         -4.41597        4.55922        0.13480
N         -2.61168        5.03460        1.38884
H         -1.26465       -1.64231        1.31342
H         -2.08529       -1.81535       -0.24244
H         -0.09646       -0.94646       -1.43203
H          0.35703       -2.31033       -0.41056
H          2.03887       -0.33726        2.30570
H          1.68331       -2.00860        1.69547
H          2.76709       -1.43904       -0.50399
H          3.12819        0.23102        0.10867
H          0.44506        1.53426       -0.52558
H          1.19528        1.64680        1.07014
H         -2.78132        0.24288        0.96531
H         -2.04262        0.64107       -0.57824
H         -4.10134        1.02710        3.34737
H         -2.37785        0.51720        3.61969
H         -1.81043        2.83869        4.37962
H         -3.53057        3.35211        4.10539
H         -4.29978        2.34313        1.06455
H         -1.71463        4.66383        1.68764
H         -2.57592        5.93218        0.92621

--Link1--
%chk=JID_7970.chk
%mem=8GB
%nprocshared=4
# B3LYP/6-311++G(d,p) empiricaldispersion=gd3bj scf=xqc pop=npa geom=check

CID_127897967_JID_7970_Energie_neutraal

0 1

--Link1--
%chk=JID_7970.chk
%mem=8GB
%nprocshared=4
# B3LYP/6-311++G(d,p) empiricaldispersion=gd3bj scf=xqc pop=npa geom=check

CID_127897967_JID_7970_Energie_kation

1 2

--Link1--
%chk=JID_7970.chk
%mem=8GB
%nprocshared=4
# B3LYP/6-311++G(d,p) empiricaldispersion=gd3bj scf=xqc pop=npa geom=check

CID_127897967_JID_7970_Energie_anion

-1 2
