%chk=JID_819.chk
%mem=8GB
%nprocshared=4
# opt freq B3LYP/6-31G(d) empiricaldispersion=gd3bj scf=xqc

CID_14176674_JID_819_neutraal

0 1
C          0.99112        0.05407        0.08365
C          0.20795        1.28100        0.52141
N          0.44420        2.37548       -0.40987
C         -0.27813        3.52443       -0.32073
C         -1.42120        3.84634        0.37667
C         -1.69071        5.19901        0.06718
N         -0.78422        5.70361       -0.77666
N          0.05136        4.67061       -1.01034
C          1.15380        4.85180       -1.92314
C         -2.81017        6.03979        0.55160
H          0.69251       -0.26359       -0.92100
H          0.81465       -0.77711        0.77328
H          2.06668        0.25962        0.06407
H         -0.85711        1.02430        0.55481
H          0.52264        1.57477        1.52928
H          1.38711        2.40123       -0.79078
H         -1.99111        3.19889        1.02567
H          1.08569        4.09245       -2.70607
H          1.10032        5.84767       -2.37096
H          2.08567        4.74698       -1.36212
H         -2.45410        7.03226        0.84642
H         -3.56227        6.16094       -0.23446
H         -3.29566        5.58516        1.42110

--Link1--
%chk=JID_819.chk
%mem=8GB
%nprocshared=4
# B3LYP/6-311++G(d,p) empiricaldispersion=gd3bj scf=xqc pop=npa geom=check

CID_14176674_JID_819_Energie_neutraal

0 1

--Link1--
%chk=JID_819.chk
%mem=8GB
%nprocshared=4
# B3LYP/6-311++G(d,p) empiricaldispersion=gd3bj scf=xqc pop=npa geom=check

CID_14176674_JID_819_Energie_kation

1 2

--Link1--
%chk=JID_819.chk
%mem=8GB
%nprocshared=4
# B3LYP/6-311++G(d,p) empiricaldispersion=gd3bj scf=xqc pop=npa geom=check

CID_14176674_JID_819_Energie_anion

-1 2
