%chk=JID_4724.chk
%mem=8GB
%nprocshared=4
# opt freq B3LYP/6-31G(d) empiricaldispersion=gd3bj scf=xqc

CID_106972154_JID_4724_neutraal

0 1
C          0.96128        0.07565       -0.05271
S          1.85062        1.07198       -1.27675
C          1.51940        0.13697       -2.76458
N          0.84061       -1.01512       -2.66149
C          0.61898       -1.65178       -3.81409
N          1.01959       -1.25534       -5.02961
C          1.71923       -0.10976       -5.10719
C          1.97847        0.63216       -3.96836
N          2.15220        0.36054       -6.36323
C          1.59553       -0.40696       -7.49849
C          2.03942        0.21442       -8.84190
N          3.50699        0.33629       -8.97456
C          4.01205        1.12305       -7.83150
C          3.61679        0.54535       -6.45175
H          1.06456        0.54599        0.92906
H          1.37972       -0.93297        0.00600
H         -0.10356        0.02143       -0.29575
H          0.06127       -2.58045       -3.76328
H          2.49610        1.58040       -4.01995
H          1.93506       -1.45106       -7.46214
H          0.49884       -0.39665       -7.46457
H          1.58642        1.20668       -8.96029
H          1.66535       -0.40343       -9.66568
H          3.90546       -0.60114       -8.91540
H          3.64310        2.15276       -7.91845
H          5.10439        1.17441       -7.89924
H          3.97988        1.23995       -5.68609
H          4.12432       -0.41700       -6.30164

--Link1--
%chk=JID_4724.chk
%mem=8GB
%nprocshared=4
# B3LYP/6-311++G(d,p) empiricaldispersion=gd3bj scf=xqc pop=npa geom=check

CID_106972154_JID_4724_Energie_neutraal

0 1

--Link1--
%chk=JID_4724.chk
%mem=8GB
%nprocshared=4
# B3LYP/6-311++G(d,p) empiricaldispersion=gd3bj scf=xqc pop=npa geom=check

CID_106972154_JID_4724_Energie_kation

1 2

--Link1--
%chk=JID_4724.chk
%mem=8GB
%nprocshared=4
# B3LYP/6-311++G(d,p) empiricaldispersion=gd3bj scf=xqc pop=npa geom=check

CID_106972154_JID_4724_Energie_anion

-1 2
