%chk=JID_5445.chk
%mem=8GB
%nprocshared=4
# opt freq B3LYP/6-31G(d) empiricaldispersion=gd3bj scf=xqc

CID_112513117_JID_5445_neutraal

0 1
C          0.94805        0.00989        0.08487
C          0.40208       -1.37263        0.40544
C          0.73383       -1.85212        1.82273
C          0.17008       -0.98969        2.95851
C         -1.33716       -0.94158        2.98835
C         -2.02293        0.17684        2.49993
C         -3.41850        0.20726        2.49126
C         -4.15677       -0.87353        2.98496
C         -3.47138       -1.98694        3.48723
C         -2.07486       -2.02325        3.48257
C         -5.66448       -0.83906        2.98874
C         -6.27246       -0.45254        4.34332
C         -5.99811        0.99241        4.79668
C         -6.57559        2.03769        3.84207
N         -6.59086        1.18424        6.12625
H          0.48269        0.78582        0.69749
H          0.75246        0.25570       -0.96392
H          2.03039        0.04899        0.24385
H         -0.68076       -1.38639        0.23992
H          0.83119       -2.08755       -0.30730
H          0.37080       -2.88208        1.93077
H          1.82470       -1.89786        1.93261
H          0.52047       -1.39449        3.91720
H          0.58059        0.02570        2.90864
H         -1.47512        1.03221        2.11308
H         -3.92224        1.08517        2.09482
H         -4.02230       -2.83777        3.88148
H         -1.56580       -2.90382        3.86824
H         -6.02846       -0.17808        2.19376
H         -6.02883       -1.83820        2.71452
H         -7.35776       -0.61075        4.28111
H         -5.90450       -1.14697        5.11098
H         -4.91889        1.15195        4.89193
H         -7.65108        1.89242        3.69083
H         -6.42426        3.05083        4.23188
H         -6.08970        1.99822        2.86311
H         -6.40096        2.13228        6.44951
H         -7.60517        1.10295        6.06852

--Link1--
%chk=JID_5445.chk
%mem=8GB
%nprocshared=4
# B3LYP/6-311++G(d,p) empiricaldispersion=gd3bj scf=xqc pop=npa geom=check

CID_112513117_JID_5445_Energie_neutraal

0 1

--Link1--
%chk=JID_5445.chk
%mem=8GB
%nprocshared=4
# B3LYP/6-311++G(d,p) empiricaldispersion=gd3bj scf=xqc pop=npa geom=check

CID_112513117_JID_5445_Energie_kation

1 2

--Link1--
%chk=JID_5445.chk
%mem=8GB
%nprocshared=4
# B3LYP/6-311++G(d,p) empiricaldispersion=gd3bj scf=xqc pop=npa geom=check

CID_112513117_JID_5445_Energie_anion

-1 2
