%chk=JID_10704.chk
%mem=8GB
%nprocshared=4
# opt freq B3LYP/6-31G(d) empiricaldispersion=gd3bj scf=xqc

CID_105576435_JID_10704_neutraal

0 1
C          1.19000        0.02200       -1.47900
C          0.84059       -0.10441        0.02547
C          0.57390       -1.58370        0.38598
C         -0.67796       -2.13451       -0.29017
C         -1.89537       -1.26005       -0.01285
N         -1.63455        0.15399       -0.30928
C         -0.42923        0.75692        0.32523
C         -0.65340        1.08569        1.81936
O          0.14837        1.62230        2.57054
O         -1.86939        0.76865        2.30943
C         -2.29133        0.87971       -1.28472
O         -1.79706        1.88874       -1.79261
N         -3.46865        0.41836       -1.78124
C         -4.60806        0.15581       -1.05071
N         -5.74667       -0.08656       -1.70670
N         -6.65521       -0.28346       -0.73646
C         -6.14453       -0.15149        0.51849
C         -4.81268        0.14558        0.34679
C         -8.01961       -0.58653       -1.09350
C          2.08661        0.37095        0.79981
H          0.35982       -0.26368       -2.13148
H          1.45794        1.05484       -1.73058
H          2.04378       -0.61394       -1.73990
H          1.43433       -2.20557        0.10878
H          0.45730       -1.68260        1.47331
H         -0.51603       -2.20973       -1.37152
H         -0.87022       -3.15322        0.06587
H         -2.72432       -1.64879       -0.60832
H         -2.17757       -1.34588        1.04087
H         -0.27146        1.75178       -0.11170
H         -1.83248        1.09610        3.23250
H         -3.71512        0.77761       -2.69298
H         -6.75153       -0.26335        1.40552
H         -4.09649        0.34222        1.12931
H         -8.42008        0.25272       -1.66740
H         -8.02417       -1.50015       -1.69300
H         -8.60899       -0.73378       -0.18539
H          2.24726        1.44684        0.66960
H          2.01021        0.15921        1.87094
H          2.98862       -0.14279        0.44622

--Link1--
%chk=JID_10704.chk
%mem=8GB
%nprocshared=4
# B3LYP/6-311++G(d,p) empiricaldispersion=gd3bj scf=xqc pop=npa geom=check

CID_105576435_JID_10704_Energie_neutraal

0 1

--Link1--
%chk=JID_10704.chk
%mem=8GB
%nprocshared=4
# B3LYP/6-311++G(d,p) empiricaldispersion=gd3bj scf=xqc pop=npa geom=check

CID_105576435_JID_10704_Energie_kation

1 2

--Link1--
%chk=JID_10704.chk
%mem=8GB
%nprocshared=4
# B3LYP/6-311++G(d,p) empiricaldispersion=gd3bj scf=xqc pop=npa geom=check

CID_105576435_JID_10704_Energie_anion

-1 2
