%chk=JID_5642.chk
%mem=8GB
%nprocshared=4
# opt freq B3LYP/6-31G(d) empiricaldispersion=gd3bj scf=xqc

CID_62834646_JID_5642_neutraal

0 1
C          1.08131       -0.02256        0.05367
C          0.73349       -0.87825       -1.15518
C          1.96021       -1.44419       -1.89335
N          2.37464       -2.82739       -1.60936
C          1.30079       -3.77463       -1.96562
C          1.88674       -5.06781       -2.46059
C          1.11712       -5.92377       -3.43712
C          2.35591       -5.20165       -3.88851
C          2.87440       -3.07815       -0.23972
C          4.34533       -2.66802        0.17300
C          4.63022       -1.15907        0.08285
C          4.49224       -3.05575        1.66846
N          5.43378       -3.41388       -0.50479
C          5.36584       -3.42906       -1.96381
C          6.72579       -3.80231       -2.54095
H          1.52840       -0.61107        0.85713
H          0.17383        0.44079        0.45486
H          1.77328        0.78069       -0.21829
H          0.03799       -1.66934       -0.85598
H          0.17995       -0.24412       -1.85964
H          1.73696       -1.40146       -2.96914
H          2.80282       -0.75846       -1.79060
H          0.63218       -3.96661       -1.11694
H          0.67139       -3.36176       -2.76518
H          2.45049       -5.59091       -1.69699
H          1.17317       -7.00004       -3.31905
H          0.16216       -5.56820       -3.80601
H          2.24355       -4.34783       -4.54650
H          3.25218       -5.78408       -4.06809
H          2.16598       -2.66335        0.48661
H          2.83159       -4.16111       -0.05659
H          3.86011       -0.57966        0.59931
H          5.58646       -0.90839        0.55950
H          4.70013       -0.80043       -0.94635
H          4.33522       -4.13052        1.82101
H          5.48758       -2.80941        2.05824
H          3.75988       -2.52277        2.28640
H          6.33126       -3.03197       -0.20924
H          4.64057       -4.17652       -2.29275
H          5.08297       -2.45640       -2.37694
H          7.06096       -4.77823       -2.17469
H          6.67008       -3.85130       -3.63324
H          7.48360       -3.05626       -2.27723

--Link1--
%chk=JID_5642.chk
%mem=8GB
%nprocshared=4
# B3LYP/6-311++G(d,p) empiricaldispersion=gd3bj scf=xqc pop=npa geom=check

CID_62834646_JID_5642_Energie_neutraal

0 1

--Link1--
%chk=JID_5642.chk
%mem=8GB
%nprocshared=4
# B3LYP/6-311++G(d,p) empiricaldispersion=gd3bj scf=xqc pop=npa geom=check

CID_62834646_JID_5642_Energie_kation

1 2

--Link1--
%chk=JID_5642.chk
%mem=8GB
%nprocshared=4
# B3LYP/6-311++G(d,p) empiricaldispersion=gd3bj scf=xqc pop=npa geom=check

CID_62834646_JID_5642_Energie_anion

-1 2
