%chk=JID_9814.chk
%mem=8GB
%nprocshared=4
# opt freq B3LYP/6-31G(d) empiricaldispersion=gd3bj scf=xqc

CID_112055517_JID_9814_neutraal

0 1
C         -1.09000        0.74600        0.20700
C         -1.01576       -0.71988        0.56710
C          0.42509       -0.92881        1.02369
O          1.12122        0.30495        0.82391
C          0.34871        1.09299       -0.08720
C          0.52592       -1.54623        2.43222
O          0.74092       -2.75481        2.57307
N          0.32611       -0.81390        3.56399
C         -0.00076        0.59284        3.72764
C         -1.49078        0.81134        4.08613
C         -1.85430        0.28333        5.49812
C         -1.25900        1.05674        6.67494
O         -2.11794        2.10969        7.09071
C         -1.98107        2.23583        3.86455
C         -1.13632        3.35323        3.94770
C         -1.63746        4.64145        3.74642
C         -2.98752        4.83247        3.46427
C         -3.84058        3.73584        3.38509
C         -3.34203        2.44799        3.58507
H         -1.75887        0.95395       -0.63247
H         -1.44454        1.32114        1.06689
H         -1.20700       -1.33175       -0.32306
H         -1.76465       -1.00609        1.31145
H          0.90497       -1.65351        0.35215
H          0.62847        0.81388       -1.10908
H          0.56738        2.15364        0.06269
H          0.44441       -1.37259        4.40098
H          0.65991        0.97335        4.51275
H          0.25237        1.13401        2.81766
H         -2.05741        0.18830        3.37867
H         -2.94703        0.26276        5.60144
H         -1.51698       -0.75797        5.56804
H         -1.15884        0.38359        7.53261
H         -0.26863        1.46785        6.46509
H         -2.26489        2.70598        6.33528
H         -0.07816        3.24763        4.17498
H         -0.97166        5.49889        3.81113
H         -3.37489        5.83600        3.30793
H         -4.89581        3.88221        3.16820
H         -4.02817        1.60496        3.52139

--Link1--
%chk=JID_9814.chk
%mem=8GB
%nprocshared=4
# B3LYP/6-311++G(d,p) empiricaldispersion=gd3bj scf=xqc pop=npa geom=check

CID_112055517_JID_9814_Energie_neutraal

0 1

--Link1--
%chk=JID_9814.chk
%mem=8GB
%nprocshared=4
# B3LYP/6-311++G(d,p) empiricaldispersion=gd3bj scf=xqc pop=npa geom=check

CID_112055517_JID_9814_Energie_kation

1 2

--Link1--
%chk=JID_9814.chk
%mem=8GB
%nprocshared=4
# B3LYP/6-311++G(d,p) empiricaldispersion=gd3bj scf=xqc pop=npa geom=check

CID_112055517_JID_9814_Energie_anion

-1 2
