%chk=JID_1565.chk
%mem=8GB
%nprocshared=4
# opt freq B3LYP/6-31G(d) empiricaldispersion=gd3bj scf=xqc

CID_64515273_JID_1565_neutraal

0 1
C          0.98499       -0.02868        0.09462
C          0.24262       -0.97394       -0.83701
N          0.85687       -2.29785       -0.78700
C          0.28110       -3.21564       -1.77813
C          1.13096       -3.52326       -3.03651
C          1.57965       -2.29100       -3.82472
C          2.71993       -2.79205       -4.71129
C          3.31621       -4.01255       -3.99274
C          2.45819       -4.22871       -2.73421
C          4.79082       -3.83254       -3.65736
O          0.33168       -4.35956       -3.88674
H          0.96376       -0.39176        1.12777
H          0.51857        0.96161        0.07635
H          2.03140        0.08681       -0.20784
H         -0.80540       -1.03624       -0.52293
H          0.26782       -0.56137       -1.85117
H          1.86546       -2.22603       -0.89683
H          0.10107       -4.16875       -1.26334
H         -0.71979       -2.88477       -2.08815
H          0.77538       -1.86012       -4.42960
H          1.97700       -1.51142       -3.16637
H          3.45188       -1.99910       -4.89787
H          2.32440       -3.09922       -5.68704
H          3.22043       -4.88720       -4.64884
H          2.95515       -3.79408       -1.86027
H          2.32051       -5.29938       -2.54648
H          5.17794       -4.71109       -3.13101
H          5.38080       -3.69659       -4.56962
H          4.95050       -2.95678       -3.01892
H          0.85779       -4.62393       -4.65910

--Link1--
%chk=JID_1565.chk
%mem=8GB
%nprocshared=4
# B3LYP/6-311++G(d,p) empiricaldispersion=gd3bj scf=xqc pop=npa geom=check

CID_64515273_JID_1565_Energie_neutraal

0 1

--Link1--
%chk=JID_1565.chk
%mem=8GB
%nprocshared=4
# B3LYP/6-311++G(d,p) empiricaldispersion=gd3bj scf=xqc pop=npa geom=check

CID_64515273_JID_1565_Energie_kation

1 2

--Link1--
%chk=JID_1565.chk
%mem=8GB
%nprocshared=4
# B3LYP/6-311++G(d,p) empiricaldispersion=gd3bj scf=xqc pop=npa geom=check

CID_64515273_JID_1565_Energie_anion

-1 2
