%chk=JID_6694.chk
%mem=8GB
%nprocshared=4
# opt freq B3LYP/6-31G(d) empiricaldispersion=gd3bj scf=xqc

CID_115490697_JID_6694_neutraal

0 1
C          1.44200        0.04700       -0.00300
C          0.77407        1.25972       -0.19010
C         -0.61352        1.25126       -0.24167
N         -1.34151        0.11622       -0.11119
C         -0.65384       -1.03851        0.07545
C          0.73672       -1.15678        0.10675
N          1.44194       -2.32240        0.39182
C          0.85558       -3.65697        0.21344
C          1.01611       -4.27614       -1.15424
N          1.91724       -5.19310       -1.45203
C          1.78750       -5.56419       -2.77562
C          0.80117       -4.91241       -3.48182
S         -0.01217       -3.80906       -2.45436
C         -1.39998        2.51209       -0.42667
O         -2.61118        2.62377       -0.49102
O         -0.61707        3.60945       -0.52181
H          2.52735        0.05322        0.06567
H          1.33714        2.18241       -0.27853
H         -1.30419       -1.89603        0.21273
H          2.40536       -2.29897        0.06291
H          1.37918       -4.31536        0.91927
H         -0.19196       -3.69669        0.53097
H          2.44687       -6.32271       -3.18037
H          0.52502       -5.03156       -4.51954
H         -1.27053        4.33356       -0.62854

--Link1--
%chk=JID_6694.chk
%mem=8GB
%nprocshared=4
# B3LYP/6-311++G(d,p) empiricaldispersion=gd3bj scf=xqc pop=npa geom=check

CID_115490697_JID_6694_Energie_neutraal

0 1

--Link1--
%chk=JID_6694.chk
%mem=8GB
%nprocshared=4
# B3LYP/6-311++G(d,p) empiricaldispersion=gd3bj scf=xqc pop=npa geom=check

CID_115490697_JID_6694_Energie_kation

1 2

--Link1--
%chk=JID_6694.chk
%mem=8GB
%nprocshared=4
# B3LYP/6-311++G(d,p) empiricaldispersion=gd3bj scf=xqc pop=npa geom=check

CID_115490697_JID_6694_Energie_anion

-1 2
