%chk=JID_6457.chk
%mem=8GB
%nprocshared=4
# opt freq B3LYP/6-31G(d) empiricaldispersion=gd3bj scf=xqc

CID_116176141_JID_6457_neutraal

0 1
C          0.97471        0.06241        0.07393
C          0.59620       -1.32261       -0.40852
C          1.18589       -2.48700        0.40498
C          0.47953       -3.79429        0.00902
C          1.35881       -4.88297        0.58283
C          2.78031       -4.38450        0.35931
C          2.72309       -2.80967        0.32755
C          3.39381       -2.41729       -1.05381
O          4.43091       -1.77281       -1.19371
N          2.79672       -2.87765       -2.19924
N          3.48937       -2.26945        1.48498
C          4.00328       -0.89602        1.49009
C          3.44815        0.04746        2.58636
N          3.39709       -0.54949        3.92724
C          2.63834       -1.80282        3.83896
C          3.24567       -2.80010        2.83037
H          0.70411        0.19519        1.12378
H          0.41809        0.81296       -0.49854
H          2.02997        0.27500       -0.08105
H         -0.49905       -1.39103       -0.35424
H          0.83671       -1.41174       -1.47176
H          0.91658       -2.30898        1.45445
H         -0.53567       -3.84523        0.41736
H          0.39654       -3.89708       -1.07794
H          1.18293       -5.84893        0.09952
H          1.15742       -5.00582        1.65242
H          3.16568       -4.80492       -0.57743
H          3.45354       -4.78700        1.12475
H          2.14999       -3.65134       -2.20314
H          3.30536       -2.69721       -3.05566
H          5.08728       -0.97131        1.64900
H          3.89233       -0.38350        0.53470
H          2.44309        0.38540        2.32700
H          4.06716        0.95082        2.62732
H          4.35351       -0.77666        4.20000
H          1.59565       -1.58604        3.57697
H          2.61847       -2.26682        4.83129
H          2.61277       -3.69050        2.83137
H          4.21601       -3.13047        3.22466

--Link1--
%chk=JID_6457.chk
%mem=8GB
%nprocshared=4
# B3LYP/6-311++G(d,p) empiricaldispersion=gd3bj scf=xqc pop=npa geom=check

CID_116176141_JID_6457_Energie_neutraal

0 1

--Link1--
%chk=JID_6457.chk
%mem=8GB
%nprocshared=4
# B3LYP/6-311++G(d,p) empiricaldispersion=gd3bj scf=xqc pop=npa geom=check

CID_116176141_JID_6457_Energie_kation

1 2

--Link1--
%chk=JID_6457.chk
%mem=8GB
%nprocshared=4
# B3LYP/6-311++G(d,p) empiricaldispersion=gd3bj scf=xqc pop=npa geom=check

CID_116176141_JID_6457_Energie_anion

-1 2
