%chk=JID_9161.chk
%mem=8GB
%nprocshared=4
# opt freq B3LYP/6-31G(d) empiricaldispersion=gd3bj scf=xqc

CID_115155735_JID_9161_neutraal

0 1
C          0.94994       -0.03091        0.08086
N         -0.09359        0.72626        0.75698
C         -1.33107       -0.03429        0.92984
C         -1.27297       -1.15629        1.97289
C         -1.04045       -0.67949        3.40634
C         -2.27457       -0.01809        3.98365
O         -3.31090       -0.66113        4.16080
N         -2.26946        1.29374        4.33335
C         -1.27755        2.32489        4.11727
C         -1.72294        3.41577        3.16581
C         -0.89075        4.54155        3.01325
C         -1.29946        5.51899        2.13510
C         -2.46891        5.44076        1.41307
C         -3.30719        4.35742        1.52995
C         -2.92480        3.33792        2.41264
O         -2.66698        6.54087        0.59578
C         -1.52802        7.31206        0.85995
O         -1.29670        8.39173        0.33551
N         -0.71291        6.69882        1.78265
H          0.61010       -0.39548       -0.89380
H          1.29691       -0.87710        0.68086
H          1.81052        0.62162       -0.09735
H          0.25345        1.07165        1.64652
H         -2.12295        0.66944        1.20623
H         -1.63937       -0.45477       -0.03546
H         -2.21741       -1.71329        1.92343
H         -0.48815       -1.87318        1.70565
H         -0.84748       -1.55532        4.03986
H         -0.14449       -0.06596        3.48858
H         -3.15259        1.59058        4.73156
H         -1.09358        2.77260        5.10053
H         -0.34039        1.90267        3.75428
H          0.03976        4.63726        3.56197
H         -4.22475        4.29042        0.95614
H         -3.57696        2.46990        2.49797
H          0.15740        7.08723        2.10456

--Link1--
%chk=JID_9161.chk
%mem=8GB
%nprocshared=4
# B3LYP/6-311++G(d,p) empiricaldispersion=gd3bj scf=xqc pop=npa geom=check

CID_115155735_JID_9161_Energie_neutraal

0 1

--Link1--
%chk=JID_9161.chk
%mem=8GB
%nprocshared=4
# B3LYP/6-311++G(d,p) empiricaldispersion=gd3bj scf=xqc pop=npa geom=check

CID_115155735_JID_9161_Energie_kation

1 2

--Link1--
%chk=JID_9161.chk
%mem=8GB
%nprocshared=4
# B3LYP/6-311++G(d,p) empiricaldispersion=gd3bj scf=xqc pop=npa geom=check

CID_115155735_JID_9161_Energie_anion

-1 2
