%chk=JID_9319.chk
%mem=8GB
%nprocshared=4
# opt freq B3LYP/6-31G(d) empiricaldispersion=gd3bj scf=xqc

CID_103280359_JID_9319_neutraal

0 1
C          1.25500       -0.80600        0.40000
C          0.35997       -1.21238       -0.76729
C         -0.63584       -0.06948       -0.87265
C          0.22882        1.16151       -0.64862
C          1.26566        0.73589        0.40770
C          0.94113        1.31409        1.79235
N          2.01444        1.04361        2.73989
C          2.93058        1.91641        3.26928
O          3.97610        1.49593        3.75539
C          2.65819        3.36990        3.27197
C          3.66353        4.24556        2.85326
C          3.43958        5.62465        2.88264
C          2.21540        6.13458        3.33900
C          1.22625        5.25332        3.79780
C          1.45002        3.87283        3.76909
C          2.02900        7.61122        3.34861
O          2.98072        8.37999        3.30166
N          0.74838        8.08962        3.36969
O         -1.59965       -0.15356        0.17005
H          0.84584       -1.20927        1.33400
H          2.26443       -1.21472        0.28509
H         -0.11696       -2.17902       -0.57920
H          0.95559       -1.28469       -1.68460
H         -1.15744       -0.04309       -1.83357
H          0.75265        1.41397       -1.57885
H         -0.35471        2.03417       -0.33819
H          2.25469        1.09857        0.09863
H          0.78300        2.39037        1.69806
H          0.02929        0.87103        2.20573
H          2.30199        0.07777        2.84696
H          4.62094        3.85693        2.51265
H          4.22595        6.30270        2.55471
H          0.29281        5.62137        4.21286
H          0.69146        3.19423        4.15242
H         -0.05942        7.51726        3.17623
H          0.64635        9.09249        3.27624
H         -2.11719       -0.96418        0.02016

--Link1--
%chk=JID_9319.chk
%mem=8GB
%nprocshared=4
# B3LYP/6-311++G(d,p) empiricaldispersion=gd3bj scf=xqc pop=npa geom=check

CID_103280359_JID_9319_Energie_neutraal

0 1

--Link1--
%chk=JID_9319.chk
%mem=8GB
%nprocshared=4
# B3LYP/6-311++G(d,p) empiricaldispersion=gd3bj scf=xqc pop=npa geom=check

CID_103280359_JID_9319_Energie_kation

1 2

--Link1--
%chk=JID_9319.chk
%mem=8GB
%nprocshared=4
# B3LYP/6-311++G(d,p) empiricaldispersion=gd3bj scf=xqc pop=npa geom=check

CID_103280359_JID_9319_Energie_anion

-1 2
