%chk=JID_8097.chk
%mem=8GB
%nprocshared=4
# opt freq B3LYP/6-31G(d) empiricaldispersion=gd3bj scf=xqc

CID_113448792_JID_8097_neutraal

0 1
C          0.94275       -0.06964       -0.04328
C          0.80444       -1.56582       -0.27628
N          0.90326       -2.32525        0.96896
C         -0.33873       -2.55888        1.70818
C         -1.06143       -3.80586        1.22257
C          2.17042       -2.71271        1.40502
O          3.19366       -2.38598        0.79371
C          2.28222       -3.55500        2.68727
N          2.25273       -2.69979        3.89321
C          2.01235       -3.49893        5.09303
C          3.44160       -1.83050        4.02409
C          4.74241       -2.54584        4.42691
O          5.00229       -3.70635        4.10459
C          5.74196       -1.70299        5.21802
C          7.08662       -2.37760        5.38803
C          6.87042       -3.24010        6.61245
O          5.95027       -2.52738        7.44923
C          5.28067       -1.53662        6.65504
H          0.15906        0.30048        0.62542
H          0.86618        0.47118       -0.99150
H          1.90908        0.17190        0.41125
H         -0.15564       -1.78890       -0.75420
H          1.58911       -1.89642       -0.96624
H         -0.13719       -2.65040        2.77729
H         -0.98445       -1.68152        1.58917
H         -0.43324       -4.69608        1.32488
H         -1.97612       -3.96350        1.80235
H         -1.33927       -3.71628        0.16760
H          1.45276       -4.27033        2.69893
H          3.18758       -4.16599        2.61708
H          2.76540       -4.27788        5.24949
H          1.98217       -2.86101        5.98330
H          1.03351       -3.98767        5.03047
H          3.63562       -1.26504        3.10703
H          3.21121       -1.07945        4.78836
H          5.83730       -0.74495        4.69579
H          7.84542       -1.61726        5.61076
H          7.42972       -2.95341        4.52407
H          6.41908       -4.20439        6.35664
H          7.79679       -3.42722        7.16263
H          5.57784       -0.55753        7.04583
H          4.20299       -1.64820        6.80203

--Link1--
%chk=JID_8097.chk
%mem=8GB
%nprocshared=4
# B3LYP/6-311++G(d,p) empiricaldispersion=gd3bj scf=xqc pop=npa geom=check

CID_113448792_JID_8097_Energie_neutraal

0 1

--Link1--
%chk=JID_8097.chk
%mem=8GB
%nprocshared=4
# B3LYP/6-311++G(d,p) empiricaldispersion=gd3bj scf=xqc pop=npa geom=check

CID_113448792_JID_8097_Energie_kation

1 2

--Link1--
%chk=JID_8097.chk
%mem=8GB
%nprocshared=4
# B3LYP/6-311++G(d,p) empiricaldispersion=gd3bj scf=xqc pop=npa geom=check

CID_113448792_JID_8097_Energie_anion

-1 2
