%chk=JID_9957.chk
%mem=8GB
%nprocshared=4
# opt freq B3LYP/6-31G(d) empiricaldispersion=gd3bj scf=xqc

CID_66290064_JID_9957_neutraal

0 1
C          0.93781       -0.03030       -0.07221
C          0.46317       -1.21292       -0.87453
O         -0.50903       -1.87319       -0.49876
N          1.04356       -1.53119       -2.06967
C          2.15435       -0.97108       -2.72446
C          1.97021       -0.69885       -4.09039
C          2.97693       -0.10161       -4.84880
C          4.19287        0.20875       -4.25600
C          4.40944       -0.11338       -2.91698
C          3.41256       -0.73982       -2.13688
C          3.79992       -1.19704       -0.74431
N          5.00186       -2.03972       -0.76768
C          5.51776       -2.33397        0.56899
C          4.55913       -3.14608        1.36587
C          3.96856       -4.35757        1.05840
N          3.15183       -4.66528        2.10727
N          3.19324       -3.75868        3.09888
C          4.04482       -2.83677        2.64727
C          2.29111       -5.81593        2.23264
H          0.05955        0.51001        0.29624
H          1.51673        0.67682       -0.66800
H          1.52006       -0.37224        0.78616
H          0.41760       -2.09829       -2.63067
H          1.01748       -0.90950       -4.57163
H          2.80698        0.12713       -5.89754
H          4.98340        0.67569       -4.83756
H          5.38743        0.08739       -2.48048
H          3.96692       -0.30266       -0.13168
H          2.98753       -1.77255       -0.29785
H          4.77537       -2.91242       -1.24127
H          6.45455       -2.89354        0.46399
H          5.77111       -1.40197        1.08810
H          4.04826       -4.99880        0.19198
H          4.25452       -1.97334        3.26601
H          2.58817       -6.37357        3.12429
H          1.25972       -5.46601        2.32293
H          2.39516       -6.44638        1.34621

--Link1--
%chk=JID_9957.chk
%mem=8GB
%nprocshared=4
# B3LYP/6-311++G(d,p) empiricaldispersion=gd3bj scf=xqc pop=npa geom=check

CID_66290064_JID_9957_Energie_neutraal

0 1

--Link1--
%chk=JID_9957.chk
%mem=8GB
%nprocshared=4
# B3LYP/6-311++G(d,p) empiricaldispersion=gd3bj scf=xqc pop=npa geom=check

CID_66290064_JID_9957_Energie_kation

1 2

--Link1--
%chk=JID_9957.chk
%mem=8GB
%nprocshared=4
# B3LYP/6-311++G(d,p) empiricaldispersion=gd3bj scf=xqc pop=npa geom=check

CID_66290064_JID_9957_Energie_anion

-1 2
