%chk=JID_2126.chk
%mem=8GB
%nprocshared=4
# opt freq B3LYP/6-31G(d) empiricaldispersion=gd3bj scf=xqc

CID_151040704_JID_2126_neutraal

0 1
C          1.07624       -0.01720        0.06238
C          0.88561        0.34679       -1.39728
S          1.55360       -0.87078       -2.56737
C          3.38040       -0.72866       -2.41680
C          3.97049        0.64635       -2.79728
C          4.10798        1.72339       -1.71743
S          5.64302        1.57704       -0.73249
N          4.81540        0.98419        0.59824
N          5.52097        0.93714        1.62605
N          6.15026        0.88632        2.57631
N          3.84301       -1.32478       -1.17183
C          5.05172       -2.11750       -1.35249
H          0.71968       -1.03015        0.27620
H          0.50232        0.67275        0.69065
H          2.11746        0.06227        0.37736
H         -0.19204        0.38717       -1.59333
H          1.26154        1.34592       -1.62449
H          3.68221       -1.39439       -3.23662
H          4.95882        0.48116       -3.24921
H          3.35979        1.06634       -3.60848
H          4.18674        2.69321       -2.22229
H          3.23472        1.79208       -1.06875
H          4.03172       -0.59125       -0.48817
H          5.87125       -1.52542       -1.77124
H          5.37889       -2.50592       -0.38297
H          4.86527       -2.97899       -2.00200

--Link1--
%chk=JID_2126.chk
%mem=8GB
%nprocshared=4
# B3LYP/6-311++G(d,p) empiricaldispersion=gd3bj scf=xqc pop=npa geom=check

CID_151040704_JID_2126_Energie_neutraal

0 1

--Link1--
%chk=JID_2126.chk
%mem=8GB
%nprocshared=4
# B3LYP/6-311++G(d,p) empiricaldispersion=gd3bj scf=xqc pop=npa geom=check

CID_151040704_JID_2126_Energie_kation

1 2

--Link1--
%chk=JID_2126.chk
%mem=8GB
%nprocshared=4
# B3LYP/6-311++G(d,p) empiricaldispersion=gd3bj scf=xqc pop=npa geom=check

CID_151040704_JID_2126_Energie_anion

-1 2
