%chk=JID_6961.chk
%mem=8GB
%nprocshared=4
# opt freq B3LYP/6-31G(d) empiricaldispersion=gd3bj scf=xqc

CID_87711848_JID_6961_neutraal

0 1
C          0.93680        0.06759       -0.03790
C          0.43446       -0.42000        1.32311
C          0.74806        0.58803        2.45500
C          0.45602        2.07592        2.21978
C         -1.01103        2.49469        2.13404
C         -1.88154        2.12733        3.34031
C         -1.41937        2.76778        4.64246
O         -3.21944        2.55306        3.07575
C         -1.05248       -0.82740        1.27755
C         -1.34037       -2.08292        0.44921
O         -0.79982       -3.24030        1.10586
C          0.27973       -3.82596        0.53240
O          0.84511       -3.45243       -0.48413
C          0.74953       -4.99174        1.33779
C          0.00978       -5.53588        2.31929
C          2.10258       -5.51724        0.96436
H          0.33123        0.89716       -0.41681
H          0.90560       -0.73085       -0.78447
H          1.97669        0.40460        0.03040
H          1.01102       -1.31947        1.57531
H          0.27737        0.25450        3.38726
H          1.82904        0.51787        2.64382
H          0.92710        2.63961        3.03524
H          0.96911        2.41380        1.31182
H         -1.04752        3.58407        1.99446
H         -1.46398        2.09516        1.22072
H         -1.92222        1.04237        3.46784
H         -1.36762        3.85791        4.54715
H         -2.13481        2.55700        5.44489
H         -0.43861        2.39608        4.95183
H         -3.21282        3.52203        2.99102
H         -1.39605       -1.01565        2.30196
H         -1.65592       -0.01127        0.87131
H         -2.42478       -2.23423        0.40583
H         -0.99962       -1.98219       -0.58613
H          0.37006       -6.38651        2.88927
H         -0.97428       -5.15881        2.58150
H          2.10839       -5.86694       -0.07316
H          2.85990       -4.73355        1.07340
H          2.40422       -6.35738        1.59906

--Link1--
%chk=JID_6961.chk
%mem=8GB
%nprocshared=4
# B3LYP/6-311++G(d,p) empiricaldispersion=gd3bj scf=xqc pop=npa geom=check

CID_87711848_JID_6961_Energie_neutraal

0 1

--Link1--
%chk=JID_6961.chk
%mem=8GB
%nprocshared=4
# B3LYP/6-311++G(d,p) empiricaldispersion=gd3bj scf=xqc pop=npa geom=check

CID_87711848_JID_6961_Energie_kation

1 2

--Link1--
%chk=JID_6961.chk
%mem=8GB
%nprocshared=4
# B3LYP/6-311++G(d,p) empiricaldispersion=gd3bj scf=xqc pop=npa geom=check

CID_87711848_JID_6961_Energie_anion

-1 2
