%chk=JID_9375.chk
%mem=8GB
%nprocshared=4
# opt freq B3LYP/6-31G(d) empiricaldispersion=gd3bj scf=xqc

CID_65897597_JID_9375_neutraal

0 1
C          1.26600       -0.09700        0.26800
C          0.50320        0.94085       -0.54067
C         -0.91801        0.84208        0.00746
C         -1.12356       -0.66932        0.18525
C          0.25790       -1.20150        0.59661
C         -1.69346       -1.34363       -1.04265
O         -2.88513       -1.49953       -1.26160
O         -0.78609       -1.69308       -1.96914
C         -1.92940        1.59291       -0.85700
N         -3.27031        1.50090       -0.31122
C         -4.17132        2.47913       -0.03418
O         -5.28126        2.16315        0.39806
C         -3.82677        3.93217       -0.24911
C         -3.38024        4.58761        1.04721
N         -1.94617        4.52001        1.25936
C         -0.99496        5.28405        0.64173
C          0.20759        4.92162        1.20105
C         -0.12503        3.94271        2.15377
N         -1.43561        3.68953        2.18530
H          1.63643        0.35079        1.19797
H          2.13207       -0.48203       -0.27907
H          0.92776        1.94220       -0.41927
H          0.53539        0.68998       -1.60736
H         -0.92773        1.28340        1.01214
H         -1.83530       -0.87056        0.99613
H          0.52336       -2.14022        0.09938
H          0.28116       -1.40019        1.67490
H         -1.31946       -2.08635       -2.69203
H         -1.62153        2.63599       -0.94512
H         -1.96931        1.18933       -1.87433
H         -3.66787        0.57041       -0.20526
H         -3.11722        4.06687       -1.06900
H         -4.75543        4.41213       -0.58550
H         -3.62904        5.65550        1.02687
H         -3.87307        4.15301        1.92471
H         -1.24911        6.00895       -0.11871
H          1.18508        5.31699        0.96537
H          0.53070        3.40096        2.82333

--Link1--
%chk=JID_9375.chk
%mem=8GB
%nprocshared=4
# B3LYP/6-311++G(d,p) empiricaldispersion=gd3bj scf=xqc pop=npa geom=check

CID_65897597_JID_9375_Energie_neutraal

0 1

--Link1--
%chk=JID_9375.chk
%mem=8GB
%nprocshared=4
# B3LYP/6-311++G(d,p) empiricaldispersion=gd3bj scf=xqc pop=npa geom=check

CID_65897597_JID_9375_Energie_kation

1 2

--Link1--
%chk=JID_9375.chk
%mem=8GB
%nprocshared=4
# B3LYP/6-311++G(d,p) empiricaldispersion=gd3bj scf=xqc pop=npa geom=check

CID_65897597_JID_9375_Energie_anion

-1 2
