%chk=JID_10033.chk
%mem=8GB
%nprocshared=4
# opt freq B3LYP/6-31G(d) empiricaldispersion=gd3bj scf=xqc

CID_140380112_JID_10033_neutraal

0 1
C          1.01736       -0.08000        0.05743
C          0.25817        0.91706        0.53192
C         -1.19810        1.05929        0.31123
O         -1.83679        1.98267        0.79039
O         -1.67734        0.06109       -0.46263
C         -3.06874        0.02377       -0.75314
C         -3.68619        1.29726       -1.36719
C         -4.91637        0.76374       -2.11441
C         -4.81887       -0.75715       -1.90830
C         -3.31227       -0.97373       -1.90276
C         -5.19247       -1.08999       -0.45362
C         -3.95657       -0.61019        0.34785
C         -4.34232        0.27433        1.52996
O         -5.14574       -0.50704        2.41811
C         -5.77748        0.28020        3.42632
C         -7.19019        0.66914        2.98235
C         -8.09389       -0.55900        2.89648
C         -8.02750       -1.35636        4.19325
C         -6.58275       -1.63821        4.58289
O         -5.82541       -0.43250        4.66477
H          0.60805       -0.88480       -0.54543
H          2.08129       -0.10969        0.26968
H          0.69627        1.70546        1.13486
H         -2.98737        1.77646       -2.06362
H         -3.96292        2.05236       -0.62675
H         -5.84929        1.18105       -1.72216
H         -4.84830        1.01927       -3.17775
H         -5.37967       -1.33453       -2.64568
H         -3.00832       -1.99764       -1.65662
H         -2.81561       -0.68237       -2.83548
H         -6.12628       -0.60438       -0.15137
H         -5.31681       -2.17186       -0.32744
H         -3.44795       -1.49575        0.75584
H         -3.45471        0.59881        2.07933
H         -4.90367        1.15391        1.19921
H         -5.19172        1.18675        3.61982
H         -7.61812        1.36524        3.71390
H         -7.17122        1.17042        2.00883
H         -7.77782       -1.19354        2.05944
H         -9.12634       -0.25336        2.69464
H         -8.58492       -2.29364        4.09400
H         -8.50490       -0.77017        4.98812
H         -6.10715       -2.33092        3.87916
H         -6.55452       -2.11212        5.56951

--Link1--
%chk=JID_10033.chk
%mem=8GB
%nprocshared=4
# B3LYP/6-311++G(d,p) empiricaldispersion=gd3bj scf=xqc pop=npa geom=check

CID_140380112_JID_10033_Energie_neutraal

0 1

--Link1--
%chk=JID_10033.chk
%mem=8GB
%nprocshared=4
# B3LYP/6-311++G(d,p) empiricaldispersion=gd3bj scf=xqc pop=npa geom=check

CID_140380112_JID_10033_Energie_kation

1 2

--Link1--
%chk=JID_10033.chk
%mem=8GB
%nprocshared=4
# B3LYP/6-311++G(d,p) empiricaldispersion=gd3bj scf=xqc pop=npa geom=check

CID_140380112_JID_10033_Energie_anion

-1 2
