%chk=JID_7957.chk
%mem=8GB
%nprocshared=4
# opt freq B3LYP/6-31G(d) empiricaldispersion=gd3bj scf=xqc

CID_123322046_JID_7957_neutraal

0 1
C          0.94242        0.05691        0.05870
C          0.41311        1.27923        0.79092
C          0.66328        2.59575        0.03208
C         -0.09873        2.71347       -1.31328
C         -1.65370        2.73990       -1.12824
C         -2.22775        3.30065        0.18821
C         -3.78367        3.21175        0.20688
C         -3.82703        4.72125       -0.12644
C         -2.41256        4.81831        0.49098
C         -4.93176        5.51124        0.54479
C          0.49748        3.77456       -2.36392
C          2.04436        3.86956       -2.24724
C          0.25581        3.25862       -3.83100
C         -1.17210        3.22189       -4.35140
C         -0.09610        5.18520       -2.11704
C          0.16523        6.27185       -3.16895
C         -0.98890        7.27042       -3.18220
H          0.38063       -0.14899       -0.85635
H          0.85408       -0.82734        0.69871
H          1.99897        0.17867       -0.20005
H         -0.64671        1.11583        0.99692
H          0.91301        1.34548        1.76470
H          0.41824        3.44861        0.67535
H          1.74446        2.64267       -0.12305
H          0.09084        1.75959       -1.82354
H         -1.98450        1.69337       -1.19508
H         -2.14289        3.23757       -1.96569
H         -1.81659        2.78492        1.05862
H         -4.24973        2.55828       -0.53543
H         -4.18770        2.95304        1.19415
H         -3.81683        4.91041       -1.20940
H         -2.41641        5.03477        1.56858
H         -1.73331        5.52610        0.02211
H         -4.79279        6.58479        0.38447
H         -5.90716        5.23270        0.13252
H         -4.95980        5.33094        1.62489
H          2.50512        2.87668       -2.32110
H          2.47256        4.48211       -3.04941
H          2.35999        4.32876       -1.30484
H          0.84297        3.86467       -4.53284
H          0.67561        2.24794       -3.92962
H         -1.70328        4.15986       -4.17273
H         -1.16394        3.05137       -5.43340
H         -1.73518        2.39661       -3.90880
H         -1.17792        5.09544       -2.02330
H          0.26591        5.55773       -1.14894
H          1.10375        6.79256       -2.94968
H          0.25347        5.86146       -4.17672
H         -1.09541        7.76414       -2.21159
H         -0.83111        8.03406       -3.94864
H         -1.93406        6.76258       -3.40996

--Link1--
%chk=JID_7957.chk
%mem=8GB
%nprocshared=4
# B3LYP/6-311++G(d,p) empiricaldispersion=gd3bj scf=xqc pop=npa geom=check

CID_123322046_JID_7957_Energie_neutraal

0 1

--Link1--
%chk=JID_7957.chk
%mem=8GB
%nprocshared=4
# B3LYP/6-311++G(d,p) empiricaldispersion=gd3bj scf=xqc pop=npa geom=check

CID_123322046_JID_7957_Energie_kation

1 2

--Link1--
%chk=JID_7957.chk
%mem=8GB
%nprocshared=4
# B3LYP/6-311++G(d,p) empiricaldispersion=gd3bj scf=xqc pop=npa geom=check

CID_123322046_JID_7957_Energie_anion

-1 2
