%chk=JID_4040.chk
%mem=8GB
%nprocshared=4
# opt freq B3LYP/6-31G(d) empiricaldispersion=gd3bj scf=xqc

CID_103560248_JID_4040_neutraal

0 1
C          0.92538       -0.06397        0.01842
C          0.41871        0.72801       -1.17592
C         -0.01591        1.40738       -2.20042
C         -0.52258        2.19937       -3.39476
C          0.58496        3.03740       -4.02985
C          1.69132        2.22415       -4.70753
C          1.30852        1.32858       -5.89227
C          0.74211        1.95773       -7.18847
C         -0.76215        2.37273       -7.12284
C         -0.42134        3.65464       -7.89940
C          1.05960        3.44946       -7.53935
O          1.06411        0.97658       -8.22821
C          0.67476        1.18867       -9.57585
O          2.75085        3.10927       -5.07638
H          0.56440       -1.09472       -0.03707
H          0.56613        0.38944        0.94642
H          2.01889       -0.06984        0.02530
H         -0.97023        1.50703       -4.11361
H         -1.32092        2.86443       -3.04530
H          0.14861        3.74543       -4.74165
H          1.04414        3.67237       -3.25918
H          2.12738        1.56751       -3.94405
H          2.23398        0.80272       -6.17071
H          0.61975        0.54489       -5.55294
H         -1.46400        1.70183       -7.62772
H         -1.16440        2.56876       -6.12752
H         -0.87365        4.56963       -7.50608
H         -0.63340        3.59956       -8.97196
H          1.36484        4.10049       -6.71774
H          1.76323        3.60924       -8.36140
H         -0.41304        1.23592       -9.66510
H          1.13418        2.09416       -9.97870
H          1.02634        0.33866      -10.16732
H          3.48957        2.56315       -5.39814

--Link1--
%chk=JID_4040.chk
%mem=8GB
%nprocshared=4
# B3LYP/6-311++G(d,p) empiricaldispersion=gd3bj scf=xqc pop=npa geom=check

CID_103560248_JID_4040_Energie_neutraal

0 1

--Link1--
%chk=JID_4040.chk
%mem=8GB
%nprocshared=4
# B3LYP/6-311++G(d,p) empiricaldispersion=gd3bj scf=xqc pop=npa geom=check

CID_103560248_JID_4040_Energie_kation

1 2

--Link1--
%chk=JID_4040.chk
%mem=8GB
%nprocshared=4
# B3LYP/6-311++G(d,p) empiricaldispersion=gd3bj scf=xqc pop=npa geom=check

CID_103560248_JID_4040_Energie_anion

-1 2
