%chk=JID_6193.chk
%mem=8GB
%nprocshared=4
# opt freq B3LYP/6-31G(d) empiricaldispersion=gd3bj scf=xqc

CID_128068357_JID_6193_neutraal

0 1
C          0.99165        0.02346       -0.09685
C          1.12414       -0.77055       -1.38907
C          1.87111       -2.09679       -1.20086
C          1.05947       -3.14832       -0.39704
C          1.81379       -3.34224        0.93833
C          1.27018       -4.47242        1.78857
C          1.31944       -5.74988        0.97696
C          0.46868       -5.59602       -0.26940
N          0.93868       -4.46810       -1.15606
S         -0.07310       -4.38188       -2.60443
O         -1.44156       -4.54319       -2.14794
O          0.27331       -3.16550       -3.31235
C          0.33728       -5.71545       -3.70024
C          1.69437       -6.36810       -3.51674
O          1.08472       -7.65167       -3.22942
C         -0.23840       -7.08009       -3.37378
H          0.37327       -0.50415        0.63519
H          0.51920        0.99047       -0.29700
H          1.97240        0.21275        0.35083
H          0.12954       -0.94517       -1.81347
H          1.67618       -0.16038       -2.11387
H          2.17458       -2.48426       -2.17799
H          2.82455       -1.87010       -0.70517
H          0.04170       -2.79845       -0.18218
H          1.78176       -2.41234        1.51856
H          2.87388       -3.55119        0.73847
H          1.87337       -4.58129        2.69654
H          0.24303       -4.25297        2.10303
H          2.35476       -5.98551        0.70178
H          0.94523       -6.58501        1.57958
H          0.53068       -6.53714       -0.81716
H         -0.57415       -5.43188        0.02525
H          0.14137       -5.42546       -4.73935
H          2.30609       -6.41585       -4.42342
H          2.32170       -6.03342       -2.68770
H         -0.82355       -7.18260       -2.45687
H         -0.78503       -7.55614       -4.19426

--Link1--
%chk=JID_6193.chk
%mem=8GB
%nprocshared=4
# B3LYP/6-311++G(d,p) empiricaldispersion=gd3bj scf=xqc pop=npa geom=check

CID_128068357_JID_6193_Energie_neutraal

0 1

--Link1--
%chk=JID_6193.chk
%mem=8GB
%nprocshared=4
# B3LYP/6-311++G(d,p) empiricaldispersion=gd3bj scf=xqc pop=npa geom=check

CID_128068357_JID_6193_Energie_kation

1 2

--Link1--
%chk=JID_6193.chk
%mem=8GB
%nprocshared=4
# B3LYP/6-311++G(d,p) empiricaldispersion=gd3bj scf=xqc pop=npa geom=check

CID_128068357_JID_6193_Energie_anion

-1 2
