%chk=JID_9849.chk
%mem=8GB
%nprocshared=4
# opt freq B3LYP/6-31G(d) empiricaldispersion=gd3bj scf=xqc

CID_71776247_JID_9849_neutraal

0 1
C          0.91032        0.01191        0.04262
S          0.24259        0.66338        1.58412
S          1.23017       -0.49538        3.01178
O          2.41885       -1.04003        2.38588
O          1.32086        0.29634        4.22019
O          0.21608       -1.73309        3.30252
C          0.56488       -2.64868        4.33037
C          0.16881       -4.06161        3.90228
C          0.81276       -4.50726        2.58209
C          2.32603       -4.73269        2.66278
C          2.73839       -6.05473        3.32055
C          2.36522       -7.32187        2.53893
C          2.85904       -7.37645        1.08783
C          4.37039       -7.20343        0.90071
C          5.23735       -8.27393        1.57062
C          5.01151       -9.70504        1.07205
C          5.22038       -9.92121       -0.43248
C          6.59496       -9.52316       -0.97594
N          7.67244      -10.29658       -0.37104
H          0.40758        0.49033       -0.80194
H          0.74621       -1.06718       -0.01910
H          1.98090        0.22086       -0.02751
H          1.63312       -2.60140        4.56726
H          0.01511       -2.36898        5.23547
H          0.40160       -4.77012        4.70426
H         -0.91906       -4.08340        3.76032
H          0.31338       -5.41785        2.23455
H          0.61521       -3.75039        1.81339
H          2.74030       -4.68250        1.65006
H          2.80094       -3.91098        3.20896
H          3.82436       -6.04004        3.47242
H          2.30022       -6.12069        4.32333
H          2.75090       -8.19136        3.08479
H          1.27516       -7.43932        2.53662
H          2.54094       -8.32823        0.64651
H          2.34661       -6.60248        0.50393
H          4.58672       -7.17718       -0.17361
H          4.67714       -6.22232        1.28133
H          6.29093       -8.00454        1.43031
H          5.07275       -8.25301        2.65432
H          5.67758      -10.37445        1.62988
H          3.99447      -10.02379        1.32978
H          5.04308      -10.98178       -0.65404
H          4.45296       -9.36976       -0.98874
H          6.60854       -9.69846       -2.05740
H          6.77889       -8.45442       -0.82625
H          8.56305      -10.00273       -0.77043
H          7.72962      -10.08965        0.62498

--Link1--
%chk=JID_9849.chk
%mem=8GB
%nprocshared=4
# B3LYP/6-311++G(d,p) empiricaldispersion=gd3bj scf=xqc pop=npa geom=check

CID_71776247_JID_9849_Energie_neutraal

0 1

--Link1--
%chk=JID_9849.chk
%mem=8GB
%nprocshared=4
# B3LYP/6-311++G(d,p) empiricaldispersion=gd3bj scf=xqc pop=npa geom=check

CID_71776247_JID_9849_Energie_kation

1 2

--Link1--
%chk=JID_9849.chk
%mem=8GB
%nprocshared=4
# B3LYP/6-311++G(d,p) empiricaldispersion=gd3bj scf=xqc pop=npa geom=check

CID_71776247_JID_9849_Energie_anion

-1 2
