%chk=JID_6741.chk
%mem=8GB
%nprocshared=4
# opt freq B3LYP/6-31G(d) empiricaldispersion=gd3bj scf=xqc

CID_15504955_JID_6741_neutraal

0 1
C          0.95137        0.02667        0.08321
O          0.13125       -1.07513       -0.28423
C          0.60879       -1.89487       -1.26957
C         -0.30068       -2.84812       -1.73025
C          0.05366       -3.73708       -2.74775
C          1.33330       -3.69458       -3.31668
C          2.24766       -2.74574       -2.83951
C          1.88888       -1.85311       -1.82178
C          1.70232       -4.62518       -4.44964
N          1.55736       -6.02240       -4.05667
C          1.69320       -6.96666       -5.17443
C          3.11615       -7.12815       -5.76100
C          3.28020       -8.46083       -6.46002
C          3.61672       -8.27332       -7.74550
C          3.71159       -6.86209       -8.01110
C          3.43342       -6.17652       -6.89342
H          0.39707        0.62808        0.81022
H          1.17026        0.66533       -0.77917
H          1.87243       -0.31430        0.56706
H         -1.29774       -2.89489       -1.29978
H         -0.67279       -4.46799       -3.09736
H          3.24932       -2.68820       -3.25949
H          2.63279       -1.13958       -1.48433
H          1.05643       -4.38666       -5.30352
H          2.73655       -4.42739       -4.74907
H          2.23348       -6.23623       -3.32514
H          1.36759       -7.93752       -4.77885
H          0.96928       -6.71505       -5.96092
H          3.87289       -7.04577       -4.97152
H          3.15028       -9.42095       -5.98222
H          3.80072       -9.04412       -8.47862
H          3.97782       -6.44203       -8.96957
H          3.44807       -5.10048       -6.81665

--Link1--
%chk=JID_6741.chk
%mem=8GB
%nprocshared=4
# B3LYP/6-311++G(d,p) empiricaldispersion=gd3bj scf=xqc pop=npa geom=check

CID_15504955_JID_6741_Energie_neutraal

0 1

--Link1--
%chk=JID_6741.chk
%mem=8GB
%nprocshared=4
# B3LYP/6-311++G(d,p) empiricaldispersion=gd3bj scf=xqc pop=npa geom=check

CID_15504955_JID_6741_Energie_kation

1 2

--Link1--
%chk=JID_6741.chk
%mem=8GB
%nprocshared=4
# B3LYP/6-311++G(d,p) empiricaldispersion=gd3bj scf=xqc pop=npa geom=check

CID_15504955_JID_6741_Energie_anion

-1 2
