%chk=JID_4202.chk
%mem=8GB
%nprocshared=4
# opt freq B3LYP/6-31G(d) empiricaldispersion=gd3bj scf=xqc

CID_104530793_JID_4202_neutraal

0 1
C          0.98500       -0.07695        0.06208
C          0.66864        1.10013        0.97606
C          1.74753        1.28909        2.03935
C          1.48499        2.70448        2.54492
C          0.93224        3.42662        1.29324
N          0.70021        2.38848        0.27550
C         -0.49517        2.65392       -0.51384
N          2.64966        3.39763        3.10066
C          2.92598        3.13751        4.51958
C          3.70443        1.83093        4.70826
C          3.75829        4.29556        5.10664
S          2.75497        5.78148        5.44992
O          3.54611        6.64146        6.39255
C          2.87466        6.53432        3.81033
H          0.19774       -0.22378       -0.68417
H          1.06862       -1.00129        0.64370
H          1.93139        0.06884       -0.47071
H         -0.30063        0.94083        1.46817
H          1.65499        0.54183        2.83299
H          2.75139        1.20259        1.60275
H          0.67268        2.67505        3.28406
H          1.64035        4.16134        0.89273
H          0.01816        3.96809        1.56948
H         -1.40514        2.64579        0.09689
H         -0.41921        3.63133       -1.00313
H         -0.61038        1.91312       -1.31149
H          3.47080        3.20291        2.52515
H          1.98627        3.06847        5.08222
H          4.62850        1.82438        4.11963
H          3.97874        1.69252        5.76018
H          3.11072        0.95977        4.42317
H          4.15853        3.99642        6.08264
H          4.61529        4.55956        4.47736
H          3.91430        6.56099        3.47648
H          2.25743        5.98776        3.09689
H          2.49771        7.55827        3.87763

--Link1--
%chk=JID_4202.chk
%mem=8GB
%nprocshared=4
# B3LYP/6-311++G(d,p) empiricaldispersion=gd3bj scf=xqc pop=npa geom=check

CID_104530793_JID_4202_Energie_neutraal

0 1

--Link1--
%chk=JID_4202.chk
%mem=8GB
%nprocshared=4
# B3LYP/6-311++G(d,p) empiricaldispersion=gd3bj scf=xqc pop=npa geom=check

CID_104530793_JID_4202_Energie_kation

1 2

--Link1--
%chk=JID_4202.chk
%mem=8GB
%nprocshared=4
# B3LYP/6-311++G(d,p) empiricaldispersion=gd3bj scf=xqc pop=npa geom=check

CID_104530793_JID_4202_Energie_anion

-1 2
