%chk=JID_7350.chk
%mem=8GB
%nprocshared=4
# opt freq B3LYP/6-31G(d) empiricaldispersion=gd3bj scf=xqc

CID_111790863_JID_7350_neutraal

0 1
C          0.92316       -0.05793       -0.02719
C          0.15783       -1.12960        0.73261
N          0.30175       -0.90843        2.16355
C         -0.40948       -1.61088        3.09940
N         -0.01162       -1.99129        4.26656
C          1.31024       -1.62478        4.77343
C          2.30065       -2.77541        4.61204
C          2.79350       -2.91639        3.20419
N          3.31325       -1.93236        2.49534
C          3.72303       -2.41286        1.26658
C          3.47871       -3.74946        1.03351
S          2.73201       -4.44110        2.41057
C          3.77357       -4.57022       -0.16775
N         -1.69609       -1.95631        2.77191
C         -2.63334       -0.86525        2.43604
C         -3.51805       -0.96146        1.22311
C         -4.11672       -1.07944        2.59081
H          0.53015        0.93826        0.20236
H          0.83650       -0.22039       -1.10592
H          1.98572       -0.06493        0.23518
H         -0.88598       -1.09212        0.41470
H          0.54940       -2.11900        0.47306
H          1.28863       -0.83718        2.40243
H          1.69140       -0.68529        4.35790
H          1.18980       -1.43189        5.84666
H          3.17292       -2.58049        5.24839
H          1.84821       -3.70762        4.97135
H          4.19376       -1.73284        0.56660
H          4.46243       -5.38519        0.07746
H          2.85521       -5.00160       -0.57939
H          4.23834       -3.96319       -0.95166
H         -2.04000       -2.52721        3.54105
H         -2.26318        0.12037        2.71156
H         -3.45378       -1.85697        0.61667
H         -3.69886       -0.05294        0.66158
H         -4.47058       -2.05428        2.90389
H         -4.70851       -0.25082        2.96150

--Link1--
%chk=JID_7350.chk
%mem=8GB
%nprocshared=4
# B3LYP/6-311++G(d,p) empiricaldispersion=gd3bj scf=xqc pop=npa geom=check

CID_111790863_JID_7350_Energie_neutraal

0 1

--Link1--
%chk=JID_7350.chk
%mem=8GB
%nprocshared=4
# B3LYP/6-311++G(d,p) empiricaldispersion=gd3bj scf=xqc pop=npa geom=check

CID_111790863_JID_7350_Energie_kation

1 2

--Link1--
%chk=JID_7350.chk
%mem=8GB
%nprocshared=4
# B3LYP/6-311++G(d,p) empiricaldispersion=gd3bj scf=xqc pop=npa geom=check

CID_111790863_JID_7350_Energie_anion

-1 2
