%chk=JID_10383.chk
%mem=8GB
%nprocshared=4
# opt freq B3LYP/6-31G(d) empiricaldispersion=gd3bj scf=xqc

CID_80963796_JID_10383_neutraal

0 1
C          0.91600       -0.05136       -0.01749
C          1.21911       -1.46940        0.44663
C          2.14442       -1.52484        1.67261
N          1.45065       -1.78383        2.94550
C          2.42858       -2.01376        4.04096
C          3.18889       -0.75125        4.51559
N          2.24121        0.32358        4.88452
C          1.24483        0.60652        3.82899
C          0.54532       -0.69786        3.37679
C          2.88235        1.48543        5.36183
N          4.21270        1.61300        5.23384
C          4.79304        2.72554        5.71847
N          4.13626        3.72891        6.31941
C          2.80541        3.58716        6.44786
C          2.13965        2.46716        5.99038
N          2.05541        4.59285        7.12363
N          2.78599        5.72630        7.57417
C          6.28951        2.87295        5.55995
C          7.02994        1.71645        6.23078
C          6.66625        2.98491        4.08314
H          0.39278        0.53167        0.74333
H          0.28428       -0.07737       -0.91127
H          1.83895        0.47800       -0.27592
H          0.28470       -2.01199        0.63293
H          1.71250       -1.99192       -0.38287
H          2.82713       -2.36756        1.49964
H          2.77293       -0.62806        1.71444
H          1.88041       -2.43274        4.89559
H          3.14844       -2.78763        3.74727
H          3.86944       -0.41910        3.72105
H          3.79522       -1.02913        5.38720
H          1.72821        1.09079        2.97096
H          0.46701        1.28546        4.19736
H         -0.19667       -0.47877        2.60327
H         -0.04332       -1.07811        4.22341
H          1.07758        2.34763        6.15381
H          1.22742        4.82730        6.57167
H          3.36031        5.43113        8.37109
H          3.49154        5.95875        6.86373
H          6.59831        3.80138        6.05764
H          6.79311        0.75516        5.76082
H          8.11351        1.86246        6.16641
H          6.76267        1.64304        7.29086
H          6.14635        3.82501        3.60908
H          7.74313        3.14915        3.96981
H          6.40460        2.07694        3.52795

--Link1--
%chk=JID_10383.chk
%mem=8GB
%nprocshared=4
# B3LYP/6-311++G(d,p) empiricaldispersion=gd3bj scf=xqc pop=npa geom=check

CID_80963796_JID_10383_Energie_neutraal

0 1

--Link1--
%chk=JID_10383.chk
%mem=8GB
%nprocshared=4
# B3LYP/6-311++G(d,p) empiricaldispersion=gd3bj scf=xqc pop=npa geom=check

CID_80963796_JID_10383_Energie_kation

1 2

--Link1--
%chk=JID_10383.chk
%mem=8GB
%nprocshared=4
# B3LYP/6-311++G(d,p) empiricaldispersion=gd3bj scf=xqc pop=npa geom=check

CID_80963796_JID_10383_Energie_anion

-1 2
