%chk=JID_6613.chk
%mem=8GB
%nprocshared=4
# opt freq B3LYP/6-31G(d) empiricaldispersion=gd3bj scf=xqc

CID_116364174_JID_6613_neutraal

0 1
C          1.02190        0.03889        0.08949
C          0.86251        1.48100        0.54023
C          1.22430        2.50476       -0.53907
C          0.37428        2.46309       -1.82376
C         -1.11408        2.66474       -1.54606
N          0.82942        3.51485       -2.73327
C          1.78539        3.42281       -3.70608
O          2.31359        4.46027       -4.11292
C          2.17450        2.05210       -4.26784
N          3.19923        1.44744       -3.40057
C          3.58946        0.09540       -3.84657
C          4.38362       -0.52708       -2.65393
C          3.53867       -1.80404       -2.83910
C          2.46229       -0.92264       -3.50376
C          4.31172       -0.00147       -5.19144
O          3.40404        0.18414       -6.27570
H          0.31337       -0.21365       -0.70443
H          0.83450       -0.63953        0.92801
H          2.03660       -0.14795       -0.27403
H         -0.15997        1.64427        0.89720
H          1.51804        1.64778        1.40379
H          1.14873        3.50626       -0.09398
H          2.28260        2.37913       -0.80081
H          0.50329        1.49582       -2.31358
H         -1.29504        3.60160       -1.00763
H         -1.67815        2.71104       -2.48453
H         -1.52745        1.84214       -0.95512
H          0.70120        4.47245       -2.42800
H          1.27988        1.42917       -4.36193
H          2.56102        2.23466       -5.27551
H          3.98386        2.10280       -3.36311
H          5.45991       -0.65814       -2.80238
H          4.22886       -0.05761       -1.67364
H          3.23507       -2.30931       -1.91869
H          3.98833       -2.53944       -3.51572
H          1.70221       -0.57582       -2.79507
H          1.95000       -1.38592       -4.35165
H          5.09594        0.75895       -5.26989
H          4.78855       -0.97843       -5.32572
H          2.81983       -0.59219       -6.30323

--Link1--
%chk=JID_6613.chk
%mem=8GB
%nprocshared=4
# B3LYP/6-311++G(d,p) empiricaldispersion=gd3bj scf=xqc pop=npa geom=check

CID_116364174_JID_6613_Energie_neutraal

0 1

--Link1--
%chk=JID_6613.chk
%mem=8GB
%nprocshared=4
# B3LYP/6-311++G(d,p) empiricaldispersion=gd3bj scf=xqc pop=npa geom=check

CID_116364174_JID_6613_Energie_kation

1 2

--Link1--
%chk=JID_6613.chk
%mem=8GB
%nprocshared=4
# B3LYP/6-311++G(d,p) empiricaldispersion=gd3bj scf=xqc pop=npa geom=check

CID_116364174_JID_6613_Energie_anion

-1 2
