%chk=JID_1129.chk
%mem=8GB
%nprocshared=4
# opt freq B3LYP/6-31G(d) empiricaldispersion=gd3bj scf=xqc

CID_15637033_JID_1129_neutraal

0 1
C          1.02174       -0.05838       -0.07822
C          0.59979        0.71967       -1.30815
C         -0.03073       -0.16075       -2.41183
C         -0.80275        0.85438       -3.26665
C         -0.56477        2.18233       -2.52968
C         -0.52798        1.73469       -1.06823
C          0.88890        2.62743       -2.76904
C          1.70134        1.64444       -1.90274
N          2.72145        0.95283       -2.65770
C          3.82720        0.38870       -2.09256
O          4.58350       -0.34990       -2.70661
H          0.17038       -0.58682        0.36431
H          1.43228        0.60704        0.68856
H          1.78430       -0.80425       -0.32354
H         -0.72912       -0.89125       -1.98546
H          0.70608       -0.71698       -2.99879
H         -0.44582        0.87756       -4.30115
H         -1.86882        0.60103       -3.27880
H         -1.30091        2.95242       -2.76846
H         -0.25126        2.53861       -0.37727
H         -1.46508        1.27476       -0.73541
H          1.16088        2.60806       -3.82969
H          1.03469        3.65013       -2.40153
H          2.19904        2.19878       -1.09593
H          2.53156        0.64255       -3.60390
H          3.98697        0.67083       -1.03921

--Link1--
%chk=JID_1129.chk
%mem=8GB
%nprocshared=4
# B3LYP/6-311++G(d,p) empiricaldispersion=gd3bj scf=xqc pop=npa geom=check

CID_15637033_JID_1129_Energie_neutraal

0 1

--Link1--
%chk=JID_1129.chk
%mem=8GB
%nprocshared=4
# B3LYP/6-311++G(d,p) empiricaldispersion=gd3bj scf=xqc pop=npa geom=check

CID_15637033_JID_1129_Energie_kation

1 2

--Link1--
%chk=JID_1129.chk
%mem=8GB
%nprocshared=4
# B3LYP/6-311++G(d,p) empiricaldispersion=gd3bj scf=xqc pop=npa geom=check

CID_15637033_JID_1129_Energie_anion

-1 2
