%chk=JID_5180.chk
%mem=8GB
%nprocshared=4
# opt freq B3LYP/6-31G(d) empiricaldispersion=gd3bj scf=xqc

CID_153913397_JID_5180_neutraal

0 1
C          1.69000        1.36400        0.61500
C          2.84195        0.39308        0.36244
C          2.45853       -0.73105       -0.54980
C          1.18721       -1.04252       -0.84483
C         -0.02412       -0.33567       -0.25493
C          0.38236        0.62172        0.89722
C         -1.00266       -1.41208        0.24956
C         -2.32748       -0.82453        0.71074
N         -2.97851       -0.10294       -0.37119
C         -2.19162        0.83466       -1.16053
C         -0.71998        0.48516       -1.36066
O         -0.08911        1.01381       -2.28218
C         -4.34663        0.03168       -0.43628
O         -4.97200        0.75793       -1.19099
O         -5.01059       -0.73089        0.44822
H          1.56149        2.01971       -0.25508
H          1.93891        2.01400        1.46182
H          3.68344        0.94451       -0.07203
H          3.19008       -0.03088        1.31166
H          3.26808       -1.29380       -1.00900
H          1.00277       -1.84083       -1.56237
H         -0.40177        1.36487        1.08586
H          0.50555        0.05368        1.82926
H         -0.55386       -1.97983        1.07495
H         -1.20924       -2.13575       -0.55198
H         -2.19928       -0.13100        1.54888
H         -2.96813       -1.63880        1.06510
H         -2.65403        0.94385       -2.14806
H         -2.23546        1.80437       -0.65106
H         -5.94691       -0.51814        0.25531

--Link1--
%chk=JID_5180.chk
%mem=8GB
%nprocshared=4
# B3LYP/6-311++G(d,p) empiricaldispersion=gd3bj scf=xqc pop=npa geom=check

CID_153913397_JID_5180_Energie_neutraal

0 1

--Link1--
%chk=JID_5180.chk
%mem=8GB
%nprocshared=4
# B3LYP/6-311++G(d,p) empiricaldispersion=gd3bj scf=xqc pop=npa geom=check

CID_153913397_JID_5180_Energie_kation

1 2

--Link1--
%chk=JID_5180.chk
%mem=8GB
%nprocshared=4
# B3LYP/6-311++G(d,p) empiricaldispersion=gd3bj scf=xqc pop=npa geom=check

CID_153913397_JID_5180_Energie_anion

-1 2
