%chk=JID_3287.chk
%mem=8GB
%nprocshared=4
# opt freq B3LYP/6-31G(d) empiricaldispersion=gd3bj scf=xqc

CID_101891923_JID_3287_neutraal

0 1
C          0.95179        0.08544        0.01939
C          0.51435        1.20913        0.97640
C          1.68939        1.79617        1.76321
C          1.51433        3.25811        2.13254
O          1.46783        3.60451        3.31452
C          1.48436        4.29741        1.02469
C          2.81883        5.02045        0.82807
C          3.95282        4.19155        0.22159
C          3.70658        3.80785       -1.22197
O          4.06287        4.48084       -2.17938
C          2.94126        2.59776       -1.43223
C          2.21836        1.63876       -1.47877
C          1.23968        0.54643       -1.41742
H          1.82484       -0.43885        0.42795
H          0.14461       -0.65637       -0.03267
H         -0.05119        1.97308        0.43264
H         -0.18947        0.78624        1.70523
H          1.81153        1.22679        2.69342
H          2.63857        1.69617        1.23381
H          1.11446        3.86338        0.09522
H          0.72589        5.03467        1.31886
H          2.64078        5.89275        0.18676
H          3.15937        5.40684        1.79671
H          4.87542        4.78539        0.23814
H          4.16338        3.29737        0.81570
H          0.30292        0.87520       -1.88302
H          1.59915       -0.30823       -2.00171

--Link1--
%chk=JID_3287.chk
%mem=8GB
%nprocshared=4
# B3LYP/6-311++G(d,p) empiricaldispersion=gd3bj scf=xqc pop=npa geom=check

CID_101891923_JID_3287_Energie_neutraal

0 1

--Link1--
%chk=JID_3287.chk
%mem=8GB
%nprocshared=4
# B3LYP/6-311++G(d,p) empiricaldispersion=gd3bj scf=xqc pop=npa geom=check

CID_101891923_JID_3287_Energie_kation

1 2

--Link1--
%chk=JID_3287.chk
%mem=8GB
%nprocshared=4
# B3LYP/6-311++G(d,p) empiricaldispersion=gd3bj scf=xqc pop=npa geom=check

CID_101891923_JID_3287_Energie_anion

-1 2
