%chk=JID_4697.chk
%mem=8GB
%nprocshared=4
# opt freq B3LYP/6-31G(d) empiricaldispersion=gd3bj scf=xqc

CID_88503862_JID_4697_neutraal

0 1
C          1.07071        0.05938       -0.03839
C          0.82345        0.80480        1.26133
O          1.37152        2.12173        1.23493
C          2.78859        2.19276        1.36858
C          3.22615        2.01161        2.81127
C         -0.28511       -1.22013       -4.32500
C         -0.44394        0.15875       -4.18752
C         -1.32331        0.66996       -3.23102
C         -2.03386       -0.20089       -2.40159
C         -1.89185       -1.58434       -2.55626
C         -1.01096       -2.09183       -3.51330
C         -2.99455        0.27877       -1.38520
N         -2.93163        1.32427       -0.61351
O         -1.73967        2.03513       -0.76244
H          0.48017       -0.86077       -0.07251
H          2.12446       -0.21453       -0.14479
H          0.81348        0.68305       -0.89938
H         -0.25634        0.91908        1.40143
H          1.19753        0.23762        2.11902
H          3.28951        1.47701        0.71000
H          3.08471        3.19373        1.03714
H          3.02613        0.99593        3.16461
H          4.29864        2.20146        2.91409
H          2.68059        2.69554        3.46930
H          0.40234       -1.61499       -5.06912
H          0.11525        0.83833       -4.82576
H         -1.45192        1.74548       -3.14659
H         -2.44890       -2.27308       -1.92630
H         -0.88898       -3.16621       -3.62571
H         -3.88414       -0.36169       -1.25200
H         -1.78939        2.69569       -0.04599

--Link1--
%chk=JID_4697.chk
%mem=8GB
%nprocshared=4
# B3LYP/6-311++G(d,p) empiricaldispersion=gd3bj scf=xqc pop=npa geom=check

CID_88503862_JID_4697_Energie_neutraal

0 1

--Link1--
%chk=JID_4697.chk
%mem=8GB
%nprocshared=4
# B3LYP/6-311++G(d,p) empiricaldispersion=gd3bj scf=xqc pop=npa geom=check

CID_88503862_JID_4697_Energie_kation

1 2

--Link1--
%chk=JID_4697.chk
%mem=8GB
%nprocshared=4
# B3LYP/6-311++G(d,p) empiricaldispersion=gd3bj scf=xqc pop=npa geom=check

CID_88503862_JID_4697_Energie_anion

-1 2
