%chk=JID_7093.chk
%mem=8GB
%nprocshared=4
# opt freq B3LYP/6-31G(d) empiricaldispersion=gd3bj scf=xqc

CID_55021515_JID_7093_neutraal

0 1
C          0.99194       -0.09605        0.02663
C          0.53862       -0.08563       -1.42555
C          0.89015       -1.36603       -2.11764
N          0.21277       -2.48573       -1.97951
C          0.79293       -3.49733       -2.73623
C          1.90568       -3.10602       -3.45758
S          2.24463       -1.45179       -3.17217
C          0.17281       -4.87031       -2.72053
N         -0.43503       -5.31314       -3.98187
C          0.34672       -6.02155       -4.89968
C          0.20787       -5.75922       -6.26908
C          0.91753       -6.48207       -7.24994
C          1.78011       -7.51608       -6.84861
C          1.89521       -7.80546       -5.48225
C          1.18239       -7.07429       -4.52612
C          2.55753       -8.34059       -7.83625
C          0.71701       -6.09007       -8.68852
H          0.53550       -0.92463        0.57893
H          0.70718        0.83867        0.51984
H          2.07959       -0.20239        0.10065
H         -0.54916        0.04774       -1.46266
H          0.97853        0.77576       -1.94127
H          2.51312       -3.70126       -4.12529
H          0.90909       -5.58262       -2.33263
H         -0.63269       -4.86056       -1.97528
H         -0.92857       -4.53545       -4.41369
H         -0.46718       -4.96869       -6.59200
H          2.53115       -8.62165       -5.14556
H          1.26852       -7.37544       -3.48659
H          1.87451       -8.88550       -8.49594
H          3.21523       -7.70094       -8.43313
H          3.18919       -9.08153       -7.33439
H         -0.35140       -6.08184       -8.92960
H          1.12935       -5.09053       -8.86111
H          1.19866       -6.77656       -9.38912

--Link1--
%chk=JID_7093.chk
%mem=8GB
%nprocshared=4
# B3LYP/6-311++G(d,p) empiricaldispersion=gd3bj scf=xqc pop=npa geom=check

CID_55021515_JID_7093_Energie_neutraal

0 1

--Link1--
%chk=JID_7093.chk
%mem=8GB
%nprocshared=4
# B3LYP/6-311++G(d,p) empiricaldispersion=gd3bj scf=xqc pop=npa geom=check

CID_55021515_JID_7093_Energie_kation

1 2

--Link1--
%chk=JID_7093.chk
%mem=8GB
%nprocshared=4
# B3LYP/6-311++G(d,p) empiricaldispersion=gd3bj scf=xqc pop=npa geom=check

CID_55021515_JID_7093_Energie_anion

-1 2
