%chk=JID_7531.chk
%mem=8GB
%nprocshared=4
# opt freq B3LYP/6-31G(d) empiricaldispersion=gd3bj scf=xqc

CID_63230739_JID_7531_neutraal

0 1
C          0.93979        0.06491       -0.04649
C         -0.37097        0.37747       -0.75196
C         -0.77194       -0.67537       -1.79126
N         -1.08029       -1.98556       -1.17865
C         -0.04708       -3.03162       -1.40258
C          0.47637       -3.67388       -0.10430
C          0.80090       -5.15950       -0.26788
C          1.50697       -5.42863       -1.59088
C          0.66971       -5.02321       -2.80591
C         -0.45542       -4.03520       -2.48949
C         -2.36467       -2.23481       -0.68107
C         -2.76132       -3.48466       -0.17949
C         -4.03639       -3.72150        0.35184
C         -4.98010       -2.70478        0.38269
C         -4.66896       -1.46262       -0.15329
C         -3.36067       -1.23425       -0.61766
N         -5.56748       -0.39300       -0.01804
H          0.84199       -0.81174        0.59919
H          1.23618        0.90818        0.58565
H          1.74375       -0.11779       -0.76617
H         -1.15279        0.50747        0.00335
H         -0.26500        1.34099       -1.26488
H         -1.61404       -0.31703       -2.39562
H          0.04302       -0.77004       -2.52080
H          0.84021       -2.52944       -1.81557
H          1.39806       -3.15107        0.18591
H         -0.19662       -3.53526        0.74750
H         -0.12022       -5.75197       -0.21699
H          1.43227       -5.48808        0.56552
H          1.77262       -6.48935       -1.66641
H          2.45342       -4.87322       -1.60797
H          0.23149       -5.91722       -3.26624
H          1.33604       -4.59157       -3.56293
H         -1.33858       -4.60862       -2.19227
H         -0.74163       -3.50657       -3.40731
H         -2.08078       -4.32630       -0.16153
H         -4.27905       -4.70098        0.75455
H         -5.95321       -2.89014        0.82644
H         -3.13978       -0.22173       -0.93594
H         -6.53913       -0.68480        0.01373
H         -5.41230        0.35074       -0.69095

--Link1--
%chk=JID_7531.chk
%mem=8GB
%nprocshared=4
# B3LYP/6-311++G(d,p) empiricaldispersion=gd3bj scf=xqc pop=npa geom=check

CID_63230739_JID_7531_Energie_neutraal

0 1

--Link1--
%chk=JID_7531.chk
%mem=8GB
%nprocshared=4
# B3LYP/6-311++G(d,p) empiricaldispersion=gd3bj scf=xqc pop=npa geom=check

CID_63230739_JID_7531_Energie_kation

1 2

--Link1--
%chk=JID_7531.chk
%mem=8GB
%nprocshared=4
# B3LYP/6-311++G(d,p) empiricaldispersion=gd3bj scf=xqc pop=npa geom=check

CID_63230739_JID_7531_Energie_anion

-1 2
