%chk=JID_3569.chk
%mem=8GB
%nprocshared=4
# opt freq B3LYP/6-31G(d) empiricaldispersion=gd3bj scf=xqc

CID_72805314_JID_3569_neutraal

0 1
C          1.00927        0.03836        0.09189
C          0.58282       -0.06373       -1.36584
O         -0.20112        1.08636       -1.69671
C          0.24613        1.48260       -3.00411
C          0.34555        3.00242       -3.07111
C          1.56560        3.30231       -2.20840
C          2.54610        2.17589       -2.53865
C          1.68748        1.00953       -3.07375
O          1.75197       -0.12133       -2.19399
C          2.13584        0.57884       -4.47202
O          1.34376       -0.51226       -4.93714
O         -0.81278        3.63586       -2.55503
C         -0.24556       -1.32124       -1.60751
H          1.63557       -0.81090        0.38430
H          0.14170        0.09309        0.75780
H          1.59934        0.94683        0.25700
H         -0.43718        1.05894       -3.74595
H          0.51144        3.34069       -4.09993
H          1.30710        3.29125       -1.14239
H          1.98362        4.29152       -2.42084
H          3.13530        1.89950       -1.65811
H          3.24494        2.53166       -3.30513
H          2.04496        1.39629       -5.19412
H          3.17736        0.23993       -4.45975
H          1.43581       -1.21178       -4.26191
H         -1.10391        3.08866       -1.79846
H          0.32897       -2.22529       -1.38004
H         -1.16115       -1.31507       -1.00689
H         -0.54996       -1.38883       -2.65810

--Link1--
%chk=JID_3569.chk
%mem=8GB
%nprocshared=4
# B3LYP/6-311++G(d,p) empiricaldispersion=gd3bj scf=xqc pop=npa geom=check

CID_72805314_JID_3569_Energie_neutraal

0 1

--Link1--
%chk=JID_3569.chk
%mem=8GB
%nprocshared=4
# B3LYP/6-311++G(d,p) empiricaldispersion=gd3bj scf=xqc pop=npa geom=check

CID_72805314_JID_3569_Energie_kation

1 2

--Link1--
%chk=JID_3569.chk
%mem=8GB
%nprocshared=4
# B3LYP/6-311++G(d,p) empiricaldispersion=gd3bj scf=xqc pop=npa geom=check

CID_72805314_JID_3569_Energie_anion

-1 2
