%chk=JID_6062.chk
%mem=8GB
%nprocshared=4
# opt freq B3LYP/6-31G(d) empiricaldispersion=gd3bj scf=xqc

CID_102823352_JID_6062_neutraal

0 1
C          0.92881       -0.05537       -0.04321
C          0.21525        0.95726       -0.95002
C          0.31088        0.55004       -2.43669
N         -0.21557       -0.79600       -2.67437
C         -0.52678       -1.19576       -3.97876
C         -1.33022       -2.33336       -4.15143
C         -1.64704       -2.81885       -5.42266
C         -1.14032       -2.18357       -6.55203
C         -0.30025       -1.07575       -6.40614
C          0.01913       -0.60232       -5.12338
C          0.22866       -0.43463       -7.63382
O          0.01440       -0.79702       -8.77623
O          0.99230        0.64297       -7.37950
C         -1.18992        1.22867       -0.43476
C         -1.93203        2.44691       -0.93556
C         -2.46263        1.07736       -1.23978
H          0.38649       -1.00559        0.00571
H          1.00298        0.32931        0.98013
H          1.94502       -0.25343       -0.39950
H          0.76519        1.90342       -0.85037
H         -0.22288        1.28960       -3.04572
H          1.36521        0.57280       -2.73948
H         -0.94593       -1.05737       -2.01535
H         -1.72315       -2.85601       -3.28200
H         -2.28348       -3.69360       -5.52746
H         -1.39066       -2.55992       -7.54167
H          0.69618        0.24096       -5.02941
H          1.25736        0.95409       -8.27029
H         -1.26141        1.05710        0.63672
H         -2.46861        3.04943       -0.21079
H         -1.51487        3.01977       -1.75622
H         -2.43976        0.75948       -2.27474
H         -3.35448        0.75204       -0.71368

--Link1--
%chk=JID_6062.chk
%mem=8GB
%nprocshared=4
# B3LYP/6-311++G(d,p) empiricaldispersion=gd3bj scf=xqc pop=npa geom=check

CID_102823352_JID_6062_Energie_neutraal

0 1

--Link1--
%chk=JID_6062.chk
%mem=8GB
%nprocshared=4
# B3LYP/6-311++G(d,p) empiricaldispersion=gd3bj scf=xqc pop=npa geom=check

CID_102823352_JID_6062_Energie_kation

1 2

--Link1--
%chk=JID_6062.chk
%mem=8GB
%nprocshared=4
# B3LYP/6-311++G(d,p) empiricaldispersion=gd3bj scf=xqc pop=npa geom=check

CID_102823352_JID_6062_Energie_anion

-1 2
