%chk=JID_10858.chk
%mem=8GB
%nprocshared=4
# opt freq B3LYP/6-31G(d) empiricaldispersion=gd3bj scf=xqc

CID_109527759_JID_10858_neutraal

0 1
C          1.05177       -0.08540        0.00513
C         -0.11241        0.29658       -0.89823
C          0.24640        0.22784       -2.37858
C         -1.41133       -0.44001       -0.59190
O         -2.41356        0.19083       -0.24121
N         -1.54261       -1.78267       -0.72465
C         -0.55703       -2.84757       -0.85334
C         -0.10873       -3.39817        0.51069
N         -1.25180       -3.79090        1.33759
C         -2.01817       -4.87996        1.04405
N         -3.29910       -4.97576        1.08083
C         -4.09556       -3.83513        1.49875
N         -1.32870       -6.00317        0.69341
C         -0.37996       -6.60888        1.63736
C         -1.05191       -7.13430        2.90915
N         -1.78764       -8.36835        2.68786
C         -1.25157       -9.62856        2.75151
C         -2.26261      -10.53097        2.50212
C         -3.44844       -9.78872        2.28956
C         -3.12715       -8.45525        2.41653
H          1.53069       -1.01805       -0.30236
H          0.72630       -0.19085        1.04509
H          1.82411        0.69130       -0.02651
H         -0.33208        1.35209       -0.68006
H          0.56172       -0.77179       -2.68741
H         -0.61243        0.50670       -2.99891
H          1.06506        0.91867       -2.60722
H         -2.48976       -2.09192       -0.53678
H         -1.03675       -3.64001       -1.43813
H          0.30840       -2.49886       -1.41664
H          0.58857       -4.22767        0.35839
H          0.43882       -2.62959        1.06363
H         -1.80305       -2.97434        1.57982
H         -3.79229       -3.46559        2.48374
H         -4.04746       -3.02436        0.76654
H         -5.14306       -4.14267        1.57759
H         -2.01832       -6.70416        0.41766
H          0.14461       -7.41922        1.11812
H          0.38263       -5.87581        1.92066
H         -0.28849       -7.35689        3.66424
H         -1.74171       -6.40465        3.34730
H         -0.20336       -9.78668        2.96875
H         -2.15859      -11.60797        2.48150
H         -4.43315      -10.18195        2.07272
H         -3.74288       -7.56719        2.33211

--Link1--
%chk=JID_10858.chk
%mem=8GB
%nprocshared=4
# B3LYP/6-311++G(d,p) empiricaldispersion=gd3bj scf=xqc pop=npa geom=check

CID_109527759_JID_10858_Energie_neutraal

0 1

--Link1--
%chk=JID_10858.chk
%mem=8GB
%nprocshared=4
# B3LYP/6-311++G(d,p) empiricaldispersion=gd3bj scf=xqc pop=npa geom=check

CID_109527759_JID_10858_Energie_kation

1 2

--Link1--
%chk=JID_10858.chk
%mem=8GB
%nprocshared=4
# B3LYP/6-311++G(d,p) empiricaldispersion=gd3bj scf=xqc pop=npa geom=check

CID_109527759_JID_10858_Energie_anion

-1 2
