%chk=JID_7104.chk
%mem=8GB
%nprocshared=4
# opt freq B3LYP/6-31G(d) empiricaldispersion=gd3bj scf=xqc

CID_114183416_JID_7104_neutraal

0 1
C         -0.72000        1.26100        0.22400
C          0.65309        1.53559       -0.37752
N          1.59281        0.44916       -0.11626
C          1.12178       -0.88736       -0.47656
C         -0.25222       -1.19557        0.11238
C         -1.26582       -0.09911       -0.23358
N         -2.57536       -0.29155        0.39861
C         -3.34547       -1.44462       -0.08081
C         -3.29942       -2.68834        0.81982
C         -3.89920       -2.46198        2.15769
N         -5.12321       -2.89573        2.48756
O         -5.26271       -2.46875        3.81131
C         -4.10663       -1.83194        4.12987
N         -3.22900       -1.79932        3.15764
C          2.93307        0.78300       -0.09339
O          3.37765        1.91843       -0.21907
N          3.79444       -0.24673        0.09763
H         -1.40752        2.06605       -0.06352
H         -0.63945        1.28271        1.31944
H          0.58140        1.65625       -1.46554
H          1.04100        2.47652        0.02893
H          1.82646       -1.65852       -0.15350
H          1.08534       -0.93153       -1.57230
H         -0.16349       -1.29190        1.20240
H         -0.58216       -2.16473       -0.27632
H         -1.39948       -0.05880       -1.32278
H         -2.48556       -0.32394        1.41867
H         -4.38962       -1.11747       -0.16256
H         -3.03924       -1.72031       -1.09734
H         -3.83545       -3.50187        0.31477
H         -2.26959       -3.03682        0.94812
H         -4.03148       -1.42899        5.12835
H          3.52206       -0.91252        0.80518
H          4.74834        0.07747        0.19975

--Link1--
%chk=JID_7104.chk
%mem=8GB
%nprocshared=4
# B3LYP/6-311++G(d,p) empiricaldispersion=gd3bj scf=xqc pop=npa geom=check

CID_114183416_JID_7104_Energie_neutraal

0 1

--Link1--
%chk=JID_7104.chk
%mem=8GB
%nprocshared=4
# B3LYP/6-311++G(d,p) empiricaldispersion=gd3bj scf=xqc pop=npa geom=check

CID_114183416_JID_7104_Energie_kation

1 2

--Link1--
%chk=JID_7104.chk
%mem=8GB
%nprocshared=4
# B3LYP/6-311++G(d,p) empiricaldispersion=gd3bj scf=xqc pop=npa geom=check

CID_114183416_JID_7104_Energie_anion

-1 2
