%chk=JID_8057.chk
%mem=8GB
%nprocshared=4
# opt freq B3LYP/6-31G(d) empiricaldispersion=gd3bj scf=xqc

CID_62035198_JID_8057_neutraal

0 1
C          1.04234       -0.06917        0.05850
C          0.13566        0.97529        0.70296
N         -0.01170        2.19137       -0.09787
C         -1.11531        3.05956        0.33513
C         -0.85104        3.96205        1.50720
C         -0.52221        5.30587        1.48762
C         -0.35566        5.84717        2.79436
C         -0.59340        4.90915        3.77232
S         -1.03379        3.39482        3.11544
C          1.22445        2.89751       -0.48833
C          2.15674        3.33833        0.66046
O          2.42069        2.57626        1.59335
C          2.77695        4.66037        0.53069
C          2.86597        5.50953       -0.55813
C          3.54770        6.72536       -0.25302
C          3.97043        6.77132        1.05704
S          3.54937        5.34822        1.90242
C          4.71088        7.85811        1.75770
H          0.71753       -0.29774       -0.96207
H          1.00723       -0.99917        0.63575
H          2.08591        0.25751        0.02628
H         -0.85023        0.50463        0.81005
H          0.48318        1.18107        1.71898
H         -1.39780        3.68859       -0.52052
H         -2.01314        2.45661        0.52703
H         -0.39036        5.87504        0.57536
H         -0.07398        6.87106        3.00659
H         -0.53818        5.04013        4.84414
H          1.82026        2.26394       -1.15614
H          0.93199        3.75848       -1.09741
H          2.47315        5.28762       -1.54247
H          3.72196        7.52353       -0.96523
H          5.65902        7.48724        2.16078
H          4.93830        8.68108        1.07202
H          4.11471        8.26375        2.58178

--Link1--
%chk=JID_8057.chk
%mem=8GB
%nprocshared=4
# B3LYP/6-311++G(d,p) empiricaldispersion=gd3bj scf=xqc pop=npa geom=check

CID_62035198_JID_8057_Energie_neutraal

0 1

--Link1--
%chk=JID_8057.chk
%mem=8GB
%nprocshared=4
# B3LYP/6-311++G(d,p) empiricaldispersion=gd3bj scf=xqc pop=npa geom=check

CID_62035198_JID_8057_Energie_kation

1 2

--Link1--
%chk=JID_8057.chk
%mem=8GB
%nprocshared=4
# B3LYP/6-311++G(d,p) empiricaldispersion=gd3bj scf=xqc pop=npa geom=check

CID_62035198_JID_8057_Energie_anion

-1 2
