%chk=JID_5673.chk
%mem=8GB
%nprocshared=4
# opt freq B3LYP/6-31G(d) empiricaldispersion=gd3bj scf=xqc

CID_131589062_JID_5673_neutraal

0 1
C         -2.59200        1.63600        0.02000
C         -1.58288        0.52567        0.03408
C         -1.97956       -0.81014       -0.06731
C         -1.04072       -1.85950       -0.05735
C          0.34153       -1.55963        0.04784
C          0.73543       -0.20598        0.16643
C         -0.22263        0.81847        0.15113
C          2.11399        0.17281        0.31664
N          3.22813        0.47219        0.43927
C          1.38548       -2.67060        0.08424
C          1.79210       -3.13324        1.46288
O          2.75251       -3.84686        1.70912
O          0.98045       -2.73846        2.46458
C         -1.56140       -3.27743       -0.13191
O         -1.26900       -3.99276        1.05980
H         -2.49909        2.24239        0.92680
H         -2.43788        2.27288       -0.85689
H         -3.61561        1.24928       -0.01922
H         -3.04188       -1.04154       -0.14709
H          0.09475        1.85773        0.23845
H          1.03431       -3.54555       -0.47126
H          2.28932       -2.33607       -0.43828
H          1.39836       -3.13477        3.26015
H         -2.64802       -3.29413       -0.26670
H         -1.12766       -3.80474       -0.98735
H         -1.02741       -3.34549        1.74903

--Link1--
%chk=JID_5673.chk
%mem=8GB
%nprocshared=4
# B3LYP/6-311++G(d,p) empiricaldispersion=gd3bj scf=xqc pop=npa geom=check

CID_131589062_JID_5673_Energie_neutraal

0 1

--Link1--
%chk=JID_5673.chk
%mem=8GB
%nprocshared=4
# B3LYP/6-311++G(d,p) empiricaldispersion=gd3bj scf=xqc pop=npa geom=check

CID_131589062_JID_5673_Energie_kation

1 2

--Link1--
%chk=JID_5673.chk
%mem=8GB
%nprocshared=4
# B3LYP/6-311++G(d,p) empiricaldispersion=gd3bj scf=xqc pop=npa geom=check

CID_131589062_JID_5673_Energie_anion

-1 2
