%chk=JID_4077.chk
%mem=8GB
%nprocshared=4
# opt freq B3LYP/6-31G(d) empiricaldispersion=gd3bj scf=xqc

CID_91516316_JID_4077_neutraal

0 1
C         -0.02900        0.88300        0.00000
C         -0.79056       -0.34440       -0.38513
C          0.52544       -0.48698        0.36765
C          1.70753       -1.02027       -0.42935
C          3.03688       -0.31270       -0.14119
C          3.79751       -0.76783        1.10931
C          4.15798       -2.25727        1.17672
C          5.02350       -2.76311        0.02219
N          6.30668       -2.09723       -0.04680
C          7.39423       -2.38970        0.70562
O          8.44874       -1.78056        0.67198
O          7.22390       -3.43596        1.52544
C          0.42429       -0.96599        1.80198
O          0.62802        0.11517        2.70222
H         -0.45178        1.50749        0.78052
H          0.45223        1.44764       -0.79098
H         -1.72215       -0.53741        0.13744
H         -0.83028       -0.60722       -1.43667
H          1.78875       -2.10392       -0.29644
H          1.49924       -0.87709       -1.49853
H          3.69230       -0.45372       -1.00941
H          2.86975        0.76895       -0.06847
H          4.71987       -0.17707        1.17791
H          3.22337       -0.51183        2.00442
H          4.68246       -2.43295        2.12441
H          3.24411       -2.85912        1.22310
H          5.19222       -3.83933        0.14016
H          4.52535       -2.61695       -0.94091
H          6.41259       -1.28366       -0.63738
H          8.08836       -3.50239        1.97908
H         -0.56295       -1.39112        2.01022
H          1.15833       -1.74515        2.02555
H          1.37841        0.63131        2.36496

--Link1--
%chk=JID_4077.chk
%mem=8GB
%nprocshared=4
# B3LYP/6-311++G(d,p) empiricaldispersion=gd3bj scf=xqc pop=npa geom=check

CID_91516316_JID_4077_Energie_neutraal

0 1

--Link1--
%chk=JID_4077.chk
%mem=8GB
%nprocshared=4
# B3LYP/6-311++G(d,p) empiricaldispersion=gd3bj scf=xqc pop=npa geom=check

CID_91516316_JID_4077_Energie_kation

1 2

--Link1--
%chk=JID_4077.chk
%mem=8GB
%nprocshared=4
# B3LYP/6-311++G(d,p) empiricaldispersion=gd3bj scf=xqc pop=npa geom=check

CID_91516316_JID_4077_Energie_anion

-1 2
