%chk=JID_10503.chk
%mem=8GB
%nprocshared=4
# opt freq B3LYP/6-31G(d) empiricaldispersion=gd3bj scf=xqc

CID_45926129_JID_10503_neutraal

0 1
C          0.92121        0.03146        0.05294
C          0.10894        1.08750        0.82392
C          0.20414        2.40098        0.00530
C         -1.37757        0.69614        0.87834
C          0.65430        1.28250        2.22600
C          0.92394        0.49825        3.33907
C          1.45122        1.41555        4.30549
N          1.47220        2.65276        3.81143
O          0.98287        2.57140        2.53654
N          1.87530        1.04776        5.56946
C          2.32523        1.84377        6.58546
O          2.70088        1.33941        7.63880
O          2.28778        3.17226        6.33330
C          2.69048        4.14509        7.32883
C          1.80930        4.06296        8.58059
C          4.17867        4.00866        7.66613
C          2.45986        5.50775        6.65786
C          0.74349       -0.91199        3.56908
O          1.13390       -1.49887        4.56962
O          0.07288       -1.59449        2.62324
H          0.58407       -0.04166       -0.98790
H          0.83445       -0.96897        0.48003
H          1.98751        0.28715        0.03883
H         -0.17934        2.26339       -1.01266
H         -0.37901        3.20745        0.46597
H          1.24187        2.74612       -0.07818
H         -1.54261       -0.25595        1.38831
H         -1.96539        1.45346        1.41102
H         -1.79708        0.59886       -0.12978
H          1.85522        0.05921        5.79361
H          1.98898        3.14523        9.14854
H          1.99616        4.90525        9.25551
H          0.74756        4.06223        8.30944
H          4.78448        3.99608        6.75309
H          4.52084        4.83412        8.29967
H          4.39327        3.07634        8.19707
H          3.04610        5.59257        5.73542
H          1.40916        5.62578        6.36772
H          2.73147        6.33801        7.31824
H          0.04326       -2.51045        2.97030

--Link1--
%chk=JID_10503.chk
%mem=8GB
%nprocshared=4
# B3LYP/6-311++G(d,p) empiricaldispersion=gd3bj scf=xqc pop=npa geom=check

CID_45926129_JID_10503_Energie_neutraal

0 1

--Link1--
%chk=JID_10503.chk
%mem=8GB
%nprocshared=4
# B3LYP/6-311++G(d,p) empiricaldispersion=gd3bj scf=xqc pop=npa geom=check

CID_45926129_JID_10503_Energie_kation

1 2

--Link1--
%chk=JID_10503.chk
%mem=8GB
%nprocshared=4
# B3LYP/6-311++G(d,p) empiricaldispersion=gd3bj scf=xqc pop=npa geom=check

CID_45926129_JID_10503_Energie_anion

-1 2
