%chk=JID_10651.chk
%mem=8GB
%nprocshared=4
# opt freq B3LYP/6-31G(d) empiricaldispersion=gd3bj scf=xqc

CID_80700827_JID_10651_neutraal

0 1
C          0.95779       -0.06330       -0.06489
C          0.96231        0.94625       -1.23969
C          2.44049        1.16104       -1.65527
C          2.69113        2.09628       -2.84005
C          2.56665        1.40468       -4.19666
N          1.29516        0.74676       -4.48711
C          0.12175        1.13014       -3.70432
C          0.08139        0.36668       -2.37759
C          1.31204       -0.23925       -5.47306
O          2.34731       -0.51958       -6.08423
C          0.00507       -0.93101       -5.84305
C          0.20840       -2.39362       -6.25840
C          0.50007       -3.33920       -5.06707
C          0.89765       -4.74235       -5.56142
C         -0.27866       -5.53240       -6.13462
C         -1.44758       -5.60884       -5.15368
C         -1.86907       -4.21874       -4.66540
C         -0.67159       -3.46534       -4.07205
N         -2.93029       -4.32349       -3.66311
C          0.34459        2.25937       -0.71402
H         -0.06246       -0.25982        0.28387
H          1.53404        0.31547        0.78691
H          1.39641       -1.02171       -0.36503
H          2.97865        1.57642       -0.79186
H          2.91215        0.19075       -1.86008
H          3.72022        2.47122       -2.76424
H          2.05514        2.98503       -2.79344
H          3.37718        0.67138       -4.29110
H          2.72274        2.14595       -4.99009
H         -0.78709        0.91590       -4.27117
H          0.11165        2.21591       -3.57404
H          0.36400       -0.67915       -2.55758
H         -0.96062        0.34244       -2.03137
H         -0.73741       -0.88747       -5.05071
H         -0.40239       -0.37371       -6.69566
H         -0.68795       -2.72372       -6.79453
H          1.03138       -2.46097       -6.98093
H          1.35986       -2.92928       -4.52098
H          1.31911       -5.30506       -4.71797
H          1.69361       -4.67009       -6.31181
H          0.05238       -6.54711       -6.38432
H         -0.61499       -5.07376       -7.07160
H         -1.15377       -6.23392       -4.29991
H         -2.29304       -6.11303       -5.63757
H         -2.27615       -3.65020       -5.50882
H         -0.98709       -2.48175       -3.71001
H         -0.30891       -4.00217       -3.18387
H         -3.71263       -4.85033       -4.05092
H         -2.59854       -4.86446       -2.86504
H         -0.66803        2.08874       -0.32973
H          0.94069        2.67400        0.10672
H          0.26896        3.02909       -1.48636

--Link1--
%chk=JID_10651.chk
%mem=8GB
%nprocshared=4
# B3LYP/6-311++G(d,p) empiricaldispersion=gd3bj scf=xqc pop=npa geom=check

CID_80700827_JID_10651_Energie_neutraal

0 1

--Link1--
%chk=JID_10651.chk
%mem=8GB
%nprocshared=4
# B3LYP/6-311++G(d,p) empiricaldispersion=gd3bj scf=xqc pop=npa geom=check

CID_80700827_JID_10651_Energie_kation

1 2

--Link1--
%chk=JID_10651.chk
%mem=8GB
%nprocshared=4
# B3LYP/6-311++G(d,p) empiricaldispersion=gd3bj scf=xqc pop=npa geom=check

CID_80700827_JID_10651_Energie_anion

-1 2
