%chk=JID_8910.chk
%mem=8GB
%nprocshared=4
# opt freq B3LYP/6-31G(d) empiricaldispersion=gd3bj scf=xqc

CID_139030638_JID_8910_neutraal

0 1
C          0.92576       -0.04230        0.05195
C          0.49146       -1.13040       -0.92124
C          1.32728       -2.39384       -0.74074
C          0.86249       -3.45314       -1.73468
C          0.58543       -2.85490       -3.08370
C          0.51079       -1.52820       -3.27399
O          0.63672       -0.60624       -2.24829
C          0.29113       -0.96204       -4.63596
O          0.22748        0.24874       -4.83664
C          0.14128       -1.88948       -5.76950
C          0.20334       -3.26473       -5.55986
C          0.42323       -3.80842       -4.20791
O          0.46653       -5.01859       -4.02054
C          0.05617       -4.15006       -6.63853
C         -0.15274       -3.65669       -7.92662
C         -0.21495       -2.28121       -8.14053
C         -0.06891       -1.40336       -7.06804
O         -0.14450       -0.06907       -7.36703
H          0.81619       -0.36975        1.09023
H          0.32499        0.86195       -0.09420
H          1.96962        0.24343       -0.11888
H         -0.57150       -1.34712       -0.75115
H          2.38511       -2.16953       -0.93183
H          1.25073       -2.77896        0.28213
H          1.63099       -4.23201       -1.80214
H         -0.05415       -3.92792       -1.36337
H          0.10373       -5.22645       -6.47887
H         -0.26700       -4.34302       -8.76267
H         -0.37770       -1.88991       -9.14216
H         -0.02900        0.44376       -6.53409

--Link1--
%chk=JID_8910.chk
%mem=8GB
%nprocshared=4
# B3LYP/6-311++G(d,p) empiricaldispersion=gd3bj scf=xqc pop=npa geom=check

CID_139030638_JID_8910_Energie_neutraal

0 1

--Link1--
%chk=JID_8910.chk
%mem=8GB
%nprocshared=4
# B3LYP/6-311++G(d,p) empiricaldispersion=gd3bj scf=xqc pop=npa geom=check

CID_139030638_JID_8910_Energie_kation

1 2

--Link1--
%chk=JID_8910.chk
%mem=8GB
%nprocshared=4
# B3LYP/6-311++G(d,p) empiricaldispersion=gd3bj scf=xqc pop=npa geom=check

CID_139030638_JID_8910_Energie_anion

-1 2
