%chk=JID_4541.chk
%mem=8GB
%nprocshared=4
# opt freq B3LYP/6-31G(d) empiricaldispersion=gd3bj scf=xqc

CID_115454159_JID_4541_neutraal

0 1
C         -0.02900        0.88300        0.00000
C         -0.98389       -0.27067       -0.10921
C          0.50678       -0.54173        0.03509
C          1.24243       -1.05269       -1.19480
N          2.55687       -0.43571       -1.30013
C          3.70520       -0.99577       -0.74410
C          4.80830       -0.16218       -0.51243
C          6.01570       -0.67134       -0.03099
C          6.14256       -2.03463        0.22305
C          5.06101       -2.89082        0.02461
C          3.87741       -2.36887       -0.51886
N          5.23386       -4.27759        0.13878
C          1.02821       -1.11879        1.33662
O          0.14237       -0.87329        2.42525
H         -0.04177        1.46933        0.91043
H          0.13652        1.48067       -0.89036
H         -1.64023       -0.47479        0.73027
H         -1.45843       -0.44831       -1.06835
H          1.26416       -2.14629       -1.20526
H          0.68630       -0.76827       -2.09689
H          2.51954        0.57499       -1.20894
H          4.74209        0.90213       -0.72437
H          6.86213       -0.00799        0.12380
H          7.09771       -2.42478        0.56281
H          3.09049       -3.06824       -0.77748
H          5.95264       -4.54511        0.80348
H          4.36769       -4.78608        0.28464
H          1.13684       -2.20439        1.25091
H          2.00325       -0.69367        1.59318
H          0.18685        0.07857        2.61054

--Link1--
%chk=JID_4541.chk
%mem=8GB
%nprocshared=4
# B3LYP/6-311++G(d,p) empiricaldispersion=gd3bj scf=xqc pop=npa geom=check

CID_115454159_JID_4541_Energie_neutraal

0 1

--Link1--
%chk=JID_4541.chk
%mem=8GB
%nprocshared=4
# B3LYP/6-311++G(d,p) empiricaldispersion=gd3bj scf=xqc pop=npa geom=check

CID_115454159_JID_4541_Energie_kation

1 2

--Link1--
%chk=JID_4541.chk
%mem=8GB
%nprocshared=4
# B3LYP/6-311++G(d,p) empiricaldispersion=gd3bj scf=xqc pop=npa geom=check

CID_115454159_JID_4541_Energie_anion

-1 2
