%chk=JID_5136.chk
%mem=8GB
%nprocshared=4
# opt=(cartesian,calcfc) freq B3LYP/6-31G(d) empiricaldispersion=gd3bj scf=xqc

CID_144731895_JID_5136_neutraal

0 1
6	1.902598	 2.335126	 -0.245299
7	2.388903	 3.605816	 -0.790563
6	3.498908	 -1.445186	 0.185041
6	2.789205	 -1.521773	 -1.014873
6	1.426256	 -1.235349	 -1.044224
6	0.738158	 -0.870322	 0.124669
6	1.463833	 -0.807153	 1.325708
6	2.828250	 -1.086973	 1.355547
6	-0.703983	 -0.543732	 0.087321
6	-1.589374	 -1.234292	 -0.755387
6	-2.943915	 -0.928531	 -0.795807
6	-3.471645	 0.092437	 0.011379
6	-2.594464	 0.790694	 0.857043
6	-1.241833	 0.475106	 0.890177
7	-4.820795	 0.443956	 -0.068435
1	0.930607	 2.098209	 -0.688948
1	1.784213	 2.300038	 0.852397
1	2.588825	 1.530849	 -0.525428
1	1.757283	 4.357969	 -0.520024
1	3.287732	 3.835394	 -0.369419
1	4.562777	 -1.663504	 0.207492
1	3.301649	 -1.790779	 -1.934504
1	0.891996	 -1.259012	 -1.989377
1	0.945992	 -0.554474	 2.246347
1	3.367435	 -1.033494	 2.297547
1	-1.213936	 -2.046690	 -1.370882
1	-3.605938	 -1.486568	 -1.453958
1	-2.978590	 1.596206	 1.478665
1	-0.582214	 1.049117	 1.534170
1	-5.432636	 -0.291623	 -0.399412
1	-5.193927	 0.889630	 0.760546

--Link1--
%chk=JID_5136.chk
%mem=8GB
%nprocshared=4
# B3LYP/6-311++G(d,p) empiricaldispersion=gd3bj scf=xqc pop=npa geom=check

CID_144731895_JID_5136_Energie_neutraal

0 1

--Link1--
%chk=JID_5136.chk
%mem=8GB
%nprocshared=4
# B3LYP/6-311++G(d,p) empiricaldispersion=gd3bj scf=xqc pop=npa geom=check

CID_144731895_JID_5136_Energie_kation

1 2

--Link1--
%chk=JID_5136.chk
%mem=8GB
%nprocshared=4
# B3LYP/6-311++G(d,p) empiricaldispersion=gd3bj scf=xqc pop=npa geom=check

CID_144731895_JID_5136_Energie_anion

-1 2
