%chk=JID_8004.chk
%mem=8GB
%nprocshared=4
# opt freq B3LYP/6-31G(d) empiricaldispersion=gd3bj scf=xqc

CID_147449762_JID_8004_neutraal

0 1
C          1.06853       -0.07162        0.01320
O          0.78573       -0.54877       -1.30104
C          0.63648        0.43211       -2.23620
O          0.62073        1.63229       -1.98989
C          0.35572       -0.16586       -3.59837
C          0.85870        0.71247       -4.74423
C          0.88699       -0.21722       -5.95759
C          1.07062       -1.62639       -5.37630
C          1.08507       -1.48280       -3.85126
O          2.11394       -2.43092       -5.92043
C          3.39666       -2.05290       -5.58705
N          3.73291       -0.75508       -5.65962
C          5.03060       -0.46034       -5.35983
C          5.99437       -1.38402       -4.95055
C          5.59028       -2.72048       -4.92889
C          4.27956       -3.06660       -5.25348
N          7.34716       -1.06793       -4.71318
O          7.73553        0.24143       -4.46291
H          1.17963       -0.93735        0.67189
H          0.24212        0.54206        0.38506
H          2.00586        0.49338        0.02198
H         -0.72806       -0.31353       -3.68407
H          0.21475        1.58166       -4.91277
H          1.86694        1.08931       -4.53184
H          1.63624        0.07679       -6.69665
H         -0.08554       -0.16434       -6.46369
H          0.15486       -2.17805       -5.62990
H          2.09912       -1.45936       -3.43743
H          0.57753       -2.32884       -3.37373
H          5.30093        0.58725       -5.46066
H          6.30711       -3.49099       -4.66677
H          3.95737       -4.09906       -5.23603
H          7.79595       -1.71345       -4.06871

--Link1--
%chk=JID_8004.chk
%mem=8GB
%nprocshared=4
# B3LYP/6-311++G(d,p) empiricaldispersion=gd3bj scf=xqc pop=npa geom=check

CID_147449762_JID_8004_Energie_neutraal

0 1

--Link1--
%chk=JID_8004.chk
%mem=8GB
%nprocshared=4
# B3LYP/6-311++G(d,p) empiricaldispersion=gd3bj scf=xqc pop=npa geom=check

CID_147449762_JID_8004_Energie_kation

1 2

--Link1--
%chk=JID_8004.chk
%mem=8GB
%nprocshared=4
# B3LYP/6-311++G(d,p) empiricaldispersion=gd3bj scf=xqc pop=npa geom=check

CID_147449762_JID_8004_Energie_anion

-1 2
