%chk=JID_8980.chk
%mem=8GB
%nprocshared=4
# opt freq B3LYP/6-31G(d) empiricaldispersion=gd3bj scf=xqc

CID_102793643_JID_8980_neutraal

0 1
C          1.02542        0.04881       -0.08350
C          0.64441       -1.21897       -0.86844
C          0.81354       -2.44310        0.04799
C         -0.83310       -1.10361       -1.28818
C          1.49785       -1.40734       -2.09707
N          1.26348       -2.21932       -3.10723
C          2.33496       -2.04376       -3.94034
N          3.23317       -1.16576       -3.48919
N          2.68565       -0.77603       -2.33280
N          2.40636       -2.73617       -5.08557
C          3.61141       -2.75881       -5.90821
C          3.24517       -3.75002       -7.01146
C          4.38444       -4.44022       -7.74177
C          3.79358       -5.52538       -8.65046
C          2.82563       -6.45538       -7.90159
N          1.78518       -5.72207       -7.16555
C          2.41176       -4.77546       -6.24095
C          1.51551       -3.85469       -5.39065
H          0.36819        0.18928        0.78259
H          0.94530        0.94581       -0.70890
H          2.05321       -0.00255        0.29447
H          0.19697       -2.35259        0.94946
H          0.52260       -3.36890       -0.46264
H          1.85635       -2.56026        0.36611
H         -0.98890       -0.25123       -1.96019
H         -1.17405       -2.00254       -1.81543
H         -1.48384       -0.96633       -0.41699
H          3.17207       -0.09202       -1.76647
H          3.84230       -1.77227       -6.32421
H          4.47131       -3.11350       -5.32694
H          2.61034       -3.23316       -7.74783
H          5.07927       -4.89784       -7.02711
H          4.95626       -3.71869       -8.33521
H          4.60365       -6.11577       -9.09326
H          3.25887       -5.04521       -9.48006
H          2.34168       -7.12276       -8.62302
H          3.38897       -7.09200       -7.20792
H          1.21043       -6.38179       -6.64177
H          3.05597       -5.33631       -5.54594
H          0.65229       -3.49396       -5.96184
H          1.15766       -4.38754       -4.50247

--Link1--
%chk=JID_8980.chk
%mem=8GB
%nprocshared=4
# B3LYP/6-311++G(d,p) empiricaldispersion=gd3bj scf=xqc pop=npa geom=check

CID_102793643_JID_8980_Energie_neutraal

0 1

--Link1--
%chk=JID_8980.chk
%mem=8GB
%nprocshared=4
# B3LYP/6-311++G(d,p) empiricaldispersion=gd3bj scf=xqc pop=npa geom=check

CID_102793643_JID_8980_Energie_kation

1 2

--Link1--
%chk=JID_8980.chk
%mem=8GB
%nprocshared=4
# B3LYP/6-311++G(d,p) empiricaldispersion=gd3bj scf=xqc pop=npa geom=check

CID_102793643_JID_8980_Energie_anion

-1 2
