%chk=JID_8269.chk
%mem=8GB
%nprocshared=4
# opt freq B3LYP/6-31G(d) empiricaldispersion=gd3bj scf=xqc

CID_106566177_JID_8269_neutraal

0 1
C          0.93832       -0.03821        0.06881
C         -0.07874        0.59516        1.00806
C          0.15819        2.09128        1.24176
N         -0.16110        3.00756        0.16297
C         -0.81063        2.72002       -1.00792
C         -0.87719        3.91098       -1.69370
N         -0.31643        4.91410       -0.94928
C          0.09873        4.36667        0.16859
N          0.68002        4.98582        1.22308
C          0.67711        6.44829        1.33912
C         -0.72466        7.06297        1.32509
C         -0.69518        8.07611        0.18495
N          0.71019        8.45626       -0.00565
C          1.45750        7.19880        0.23525
C          2.83220        7.69198        0.65467
C          2.56172        8.97408        1.42545
C          1.18348        9.44296        0.97180
C         -1.44833        4.19721       -3.02612
H          0.90083        0.40155       -0.93139
H          0.74237       -1.11082       -0.02857
H          1.95481        0.08422        0.45659
H         -1.09381        0.41242        0.63852
H         -0.00453        0.08367        1.97576
H         -0.45867        2.40990        2.09123
H          1.20916        2.25852        1.50648
H         -1.15671        1.73143       -1.27008
H          0.69739        4.51715        2.12050
H          1.12345        6.67249        2.31711
H         -1.53590        6.33907        1.20014
H         -0.90040        7.58108        2.27615
H         -1.05833        7.60509       -0.73650
H         -1.34563        8.93677        0.37572
H          1.53656        6.61825       -0.68916
H          3.39018        6.96162        1.24846
H          3.42965        7.92864       -0.23490
H          2.55183        8.77083        2.50258
H          3.33571        9.72400        1.23308
H          0.52582        9.54522        1.84351
H          1.24515       10.42760        0.49618
H         -2.24831        4.93949       -2.94496
H         -0.67605        4.59335       -3.69268
H         -1.86434        3.29425       -3.48354

--Link1--
%chk=JID_8269.chk
%mem=8GB
%nprocshared=4
# B3LYP/6-311++G(d,p) empiricaldispersion=gd3bj scf=xqc pop=npa geom=check

CID_106566177_JID_8269_Energie_neutraal

0 1

--Link1--
%chk=JID_8269.chk
%mem=8GB
%nprocshared=4
# B3LYP/6-311++G(d,p) empiricaldispersion=gd3bj scf=xqc pop=npa geom=check

CID_106566177_JID_8269_Energie_kation

1 2

--Link1--
%chk=JID_8269.chk
%mem=8GB
%nprocshared=4
# B3LYP/6-311++G(d,p) empiricaldispersion=gd3bj scf=xqc pop=npa geom=check

CID_106566177_JID_8269_Energie_anion

-1 2
