%chk=JID_10311.chk
%mem=8GB
%nprocshared=4
# opt freq B3LYP/6-31G(d) empiricaldispersion=gd3bj scf=xqc

CID_115794191_JID_10311_neutraal

0 1
C          0.93566        0.05828        0.04964
C          1.05427       -0.13288       -1.45830
C          1.15231       -1.60519       -1.85543
O         -0.06697       -2.26959       -1.49879
C          0.16534       -3.42423       -0.81222
C          0.76868       -4.53914       -1.37724
N          1.00464       -5.68602       -0.69656
C          0.60995       -5.71427        0.60300
C          0.00298       -4.64343        1.24719
C         -0.25853       -3.49027        0.50803
C         -0.34752       -4.75466        2.67894
O         -0.64394       -5.84821        3.14875
C         -0.34862       -3.55257        3.54964
C          0.66707       -2.59182        3.45970
C          0.63413       -1.43820        4.25955
C         -0.43719       -1.25332        5.15722
C         -1.42591       -2.24581        5.26647
C         -1.38096       -3.39211        4.47206
C         -0.52729       -0.03011        6.02946
C          1.72876       -0.41532        4.11828
H         -0.00599       -0.34789        0.42964
H          0.95937        1.12468        0.29571
H          1.76257       -0.42982        0.57507
H          0.17801        0.32080       -1.93571
H          1.94252        0.39701       -1.81970
H          1.26969       -1.68530       -2.94191
H          2.03917       -2.05148       -1.38501
H          1.08215       -4.54504       -2.41661
H          0.81268       -6.64592        1.12630
H         -0.77454       -2.64065        0.94407
H          1.49597       -2.73944        2.77062
H         -2.24557       -2.12962        5.97317
H         -2.15662       -4.14900        4.56570
H          0.25958       -0.05036        6.78978
H         -0.43041        0.87922        5.42760
H         -1.49303        0.02552        6.54297
H          2.54819       -0.78837        3.49444
H          1.33714        0.49303        3.64977
H          2.15454       -0.16866        5.09598

--Link1--
%chk=JID_10311.chk
%mem=8GB
%nprocshared=4
# B3LYP/6-311++G(d,p) empiricaldispersion=gd3bj scf=xqc pop=npa geom=check

CID_115794191_JID_10311_Energie_neutraal

0 1

--Link1--
%chk=JID_10311.chk
%mem=8GB
%nprocshared=4
# B3LYP/6-311++G(d,p) empiricaldispersion=gd3bj scf=xqc pop=npa geom=check

CID_115794191_JID_10311_Energie_kation

1 2

--Link1--
%chk=JID_10311.chk
%mem=8GB
%nprocshared=4
# B3LYP/6-311++G(d,p) empiricaldispersion=gd3bj scf=xqc pop=npa geom=check

CID_115794191_JID_10311_Energie_anion

-1 2
