%chk=JID_8730.chk
%mem=8GB
%nprocshared=4
# opt freq B3LYP/6-31G(d) empiricaldispersion=gd3bj scf=xqc

CID_113821666_JID_8730_neutraal

0 1
C          0.93194       -0.06603       -0.03176
C          0.75022        0.68970       -1.33704
O          1.43386        0.10586       -2.44491
C          2.85003       -0.00141       -2.32221
C          3.62440        1.18930       -2.91658
C          3.30073        2.55857       -2.32900
O          5.05724        0.96028       -2.90248
C          5.67808        0.81453       -1.70301
O          5.14594        0.82512       -0.60546
C          7.11591        0.51645       -1.90237
C          7.89056        1.11093       -2.91683
C          9.26039        0.82449       -2.94181
C          9.82090       -0.10000       -2.05462
C          9.03659       -0.72804       -1.08844
C          7.68579       -0.40491       -1.00232
O          9.70625       -1.61085       -0.28859
C          8.93370       -2.33065        0.66533
N          7.41359        2.15163       -3.73556
H          0.82364       -1.14442       -0.18387
H          0.19286        0.26465        0.70457
H          1.92108        0.11140        0.40063
H         -0.31354        0.67924       -1.59883
H          1.02983        1.73776       -1.21388
H          3.14631       -0.23023       -1.29821
H          3.13958       -0.89274       -2.89331
H          3.35885        1.24497       -3.97985
H          3.35050        2.55220       -1.23590
H          4.01970        3.30716       -2.67886
H          2.30090        2.88784       -2.62640
H          9.91179        1.32432       -3.65469
H         10.88493       -0.31890       -2.10932
H          7.04883       -0.84429       -0.24015
H          8.50141       -1.65608        1.41156
H          8.15786       -2.92898        0.17579
H          9.60466       -3.01943        1.18761
H          7.93072        2.26269       -4.60259
H          6.40881        2.08674       -3.90238

--Link1--
%chk=JID_8730.chk
%mem=8GB
%nprocshared=4
# B3LYP/6-311++G(d,p) empiricaldispersion=gd3bj scf=xqc pop=npa geom=check

CID_113821666_JID_8730_Energie_neutraal

0 1

--Link1--
%chk=JID_8730.chk
%mem=8GB
%nprocshared=4
# B3LYP/6-311++G(d,p) empiricaldispersion=gd3bj scf=xqc pop=npa geom=check

CID_113821666_JID_8730_Energie_kation

1 2

--Link1--
%chk=JID_8730.chk
%mem=8GB
%nprocshared=4
# B3LYP/6-311++G(d,p) empiricaldispersion=gd3bj scf=xqc pop=npa geom=check

CID_113821666_JID_8730_Energie_anion

-1 2
