%chk=JID_8287.chk
%mem=8GB
%nprocshared=4
# opt freq B3LYP/6-31G(d) empiricaldispersion=gd3bj scf=xqc

CID_61851465_JID_8287_neutraal

0 1
C          1.03260       -0.03363        0.08835
C          0.28093       -0.46897        1.33578
C          0.81633        0.17776        2.61230
N          0.55671        1.60695        2.69986
C         -0.67946        2.14355        2.97738
C         -0.53335        3.50139        3.04961
C          0.82017        3.81059        2.84013
C          1.49809        2.61562        2.63486
C          2.90339        2.42878        2.37345
O          3.34172        1.91019        1.35048
N          3.78900        2.84253        3.33828
C          3.49532        2.82820        4.76451
C          3.60492        1.43086        5.26927
N          4.75986        0.74319        5.31136
N          4.30036       -0.44379        5.74182
N          2.98004       -0.51761        5.95503
N          2.51949        0.68769        5.65069
N         -1.52155        4.37090        3.28528
H          0.92715        1.04095       -0.08902
H          0.63765       -0.55621       -0.78897
H          2.09770       -0.27219        0.16870
H         -0.78513       -0.24665        1.21032
H          0.36980       -1.55749        1.43248
H          0.33225       -0.27603        3.48586
H          1.89143        0.00262        2.71848
H         -1.54776        1.50973        3.09418
H          1.27366        4.79255        2.83027
H          4.73463        2.57563        3.09475
H          4.23942        3.46416        5.25450
H          2.50499        3.23977        4.97173
H          4.91194       -1.24173        5.89240
H         -1.39447        5.36664        3.13673
H         -2.49296        4.07825        3.25187

--Link1--
%chk=JID_8287.chk
%mem=8GB
%nprocshared=4
# B3LYP/6-311++G(d,p) empiricaldispersion=gd3bj scf=xqc pop=npa geom=check

CID_61851465_JID_8287_Energie_neutraal

0 1

--Link1--
%chk=JID_8287.chk
%mem=8GB
%nprocshared=4
# B3LYP/6-311++G(d,p) empiricaldispersion=gd3bj scf=xqc pop=npa geom=check

CID_61851465_JID_8287_Energie_kation

1 2

--Link1--
%chk=JID_8287.chk
%mem=8GB
%nprocshared=4
# B3LYP/6-311++G(d,p) empiricaldispersion=gd3bj scf=xqc pop=npa geom=check

CID_61851465_JID_8287_Energie_anion

-1 2
