%chk=JID_6372.chk
%mem=8GB
%nprocshared=4
# opt freq B3LYP/6-31G(d) empiricaldispersion=gd3bj scf=xqc

CID_91569103_JID_6372_neutraal

0 1
C          0.94845        0.07397       -0.04325
C          0.48457        1.51277       -0.00360
C          2.29936       -0.05852        3.27428
N          1.39915       -1.16675        2.96192
C          0.04775       -1.02577        3.51236
C          1.84339       -2.40163        2.50130
C          2.94804       -2.75681        1.83422
C          4.10095       -1.94372        1.30845
C          5.12036       -2.97455        0.92899
C          6.42261       -2.77565        0.50130
C          7.21307       -3.90039        0.24282
C          6.69547       -5.19924        0.39820
C          5.37496       -5.39342        0.80626
C          4.61527       -4.26723        1.06265
C          3.23574       -4.20120        1.55597
O          2.49825       -5.14890        1.72747
H          0.85882       -0.32287       -1.05949
H          0.32952       -0.54531        0.60736
H          1.99514        0.00379        0.25122
H          1.05796        2.11990       -0.71065
H         -0.57387        1.58231       -0.27194
H          0.61548        1.93258        0.99798
H          1.76225        0.78994        3.71260
H          2.79448        0.31233        2.37293
H          3.06128       -0.37658        3.99322
H         -0.64349       -1.74888        3.06477
H          0.05979       -1.17505        4.59613
H         -0.35225       -0.02862        3.29606
H          1.12913       -3.19312        2.73980
H          3.80584       -1.38489        0.41471
H          4.51209       -1.27319        2.06588
H          6.82977       -1.77617        0.38235
H          8.24570       -3.77045       -0.07489
H          7.33305       -6.05910        0.20567
H          4.96088       -6.38735        0.93984

--Link1--
%chk=JID_6372.chk
%mem=8GB
%nprocshared=4
# B3LYP/6-311++G(d,p) empiricaldispersion=gd3bj scf=xqc pop=npa geom=check

CID_91569103_JID_6372_Energie_neutraal

0 1

--Link1--
%chk=JID_6372.chk
%mem=8GB
%nprocshared=4
# B3LYP/6-311++G(d,p) empiricaldispersion=gd3bj scf=xqc pop=npa geom=check

CID_91569103_JID_6372_Energie_kation

1 2

--Link1--
%chk=JID_6372.chk
%mem=8GB
%nprocshared=4
# B3LYP/6-311++G(d,p) empiricaldispersion=gd3bj scf=xqc pop=npa geom=check

CID_91569103_JID_6372_Energie_anion

-1 2
