%chk=JID_6156.chk
%mem=8GB
%nprocshared=4
# opt freq B3LYP/6-31G(d) empiricaldispersion=gd3bj scf=xqc

CID_141785192_JID_6156_neutraal

0 1
C          0.99483       -0.05156        0.08553
C          0.73809        0.60978        1.42158
C          0.02989       -0.94761       -4.42395
C          0.28065       -2.20734       -3.59900
C          1.76650       -2.56636       -3.54753
C          2.59312       -1.38937       -3.01608
C          2.36390       -0.13524       -3.87562
C          0.88059        0.22678       -3.94869
C          4.06652       -1.72666       -2.93707
C          4.83239       -1.87667       -1.83725
C          4.27403       -1.82461       -0.49632
C          4.95811       -1.61328        0.61045
C          4.90267       -1.47918        2.00376
C          6.21709       -1.40063        1.26227
O          7.16795       -2.14625        1.36018
N          6.18768       -2.10064       -1.95314
H          0.13248        0.07619       -0.57477
H          1.16449       -1.12246        0.22092
H          1.86959        0.39776       -0.39180
H          0.54225        1.67806        1.28975
H         -0.12853        0.15878        1.91386
H          1.60571        0.49678        2.07848
H         -1.03101       -0.67756       -4.36931
H          0.25305       -1.15368       -5.47762
H         -0.09183       -2.05296       -2.57825
H         -0.28748       -3.04374       -4.02101
H          2.10829       -2.85021       -4.55099
H          1.90107       -3.44395       -2.90336
H          2.21319       -1.15461       -2.02199
H          2.74513       -0.29734       -4.89211
H          2.91952        0.71435       -3.45924
H          0.74162        1.07984       -4.62237
H          0.53541        0.54842       -2.95900
H          4.55577       -1.79868       -3.90813
H          3.20647       -1.97324       -0.39192
H          4.53333       -0.54704        2.40048
H          4.76273       -2.36859        2.59788
H          6.47612       -2.46205       -2.85705
H          6.59223       -2.63579       -1.18458

--Link1--
%chk=JID_6156.chk
%mem=8GB
%nprocshared=4
# B3LYP/6-311++G(d,p) empiricaldispersion=gd3bj scf=xqc pop=npa geom=check

CID_141785192_JID_6156_Energie_neutraal

0 1

--Link1--
%chk=JID_6156.chk
%mem=8GB
%nprocshared=4
# B3LYP/6-311++G(d,p) empiricaldispersion=gd3bj scf=xqc pop=npa geom=check

CID_141785192_JID_6156_Energie_kation

1 2

--Link1--
%chk=JID_6156.chk
%mem=8GB
%nprocshared=4
# B3LYP/6-311++G(d,p) empiricaldispersion=gd3bj scf=xqc pop=npa geom=check

CID_141785192_JID_6156_Energie_anion

-1 2
