%chk=JID_6488.chk
%mem=8GB
%nprocshared=4
# opt freq B3LYP/6-31G(d) empiricaldispersion=gd3bj scf=xqc

CID_59637153_JID_6488_neutraal

0 1
C          1.09192       -0.03776       -0.01121
C          0.17432        1.15454        0.30195
C          0.93313        2.19315        1.19430
C          0.77721        3.51651        0.48950
O          1.14837        4.60808        0.88559
C          0.18054        3.29804       -0.81869
C         -0.04193        4.23099       -1.81653
C         -0.60904        3.77921       -3.00680
C         -0.93437        2.42267       -3.16720
C         -0.69944        1.50107       -2.13988
C         -0.13312        1.94939       -0.95279
C          0.51780        2.18606        2.63752
O          0.97368        1.39484        3.45604
O         -0.47946        3.07273        2.89330
C         -0.92042        3.08972        4.25136
C         -1.14453        0.63937        0.90484
H          0.59849       -0.76730       -0.66362
H          1.38196       -0.55790        0.90860
H          2.00882        0.28297       -0.51974
H          2.01528        1.99762        1.17650
H          0.22081        5.27444       -1.67404
H         -0.80026        4.48005       -3.81629
H         -1.37869        2.08551       -4.10172
H         -0.96696        0.45716       -2.27805
H         -1.35185        2.12179        4.52440
H         -0.09441        3.35009        4.92033
H         -1.69678        3.85387        4.34564
H         -1.66143       -0.03720        0.21354
H         -0.97132        0.07834        1.82961
H         -1.83810        1.45910        1.12508

--Link1--
%chk=JID_6488.chk
%mem=8GB
%nprocshared=4
# B3LYP/6-311++G(d,p) empiricaldispersion=gd3bj scf=xqc pop=npa geom=check

CID_59637153_JID_6488_Energie_neutraal

0 1

--Link1--
%chk=JID_6488.chk
%mem=8GB
%nprocshared=4
# B3LYP/6-311++G(d,p) empiricaldispersion=gd3bj scf=xqc pop=npa geom=check

CID_59637153_JID_6488_Energie_kation

1 2

--Link1--
%chk=JID_6488.chk
%mem=8GB
%nprocshared=4
# B3LYP/6-311++G(d,p) empiricaldispersion=gd3bj scf=xqc pop=npa geom=check

CID_59637153_JID_6488_Energie_anion

-1 2
