%chk=JID_7609.chk
%mem=8GB
%nprocshared=4
# opt freq B3LYP/6-31G(d) empiricaldispersion=gd3bj scf=xqc

CID_61713023_JID_7609_neutraal

0 1
C          1.02726       -0.09606       -0.00545
N          0.33185       -0.16774        1.26903
C         -0.60272       -1.29344        1.37325
C         -0.00446       -2.69297        1.20009
C          1.06371       -3.02930        2.22844
O          1.37874       -2.23614        3.11634
N          1.67224       -4.27744        2.11634
C          1.65458       -5.09064        0.89921
C          2.87995       -4.76057        0.03418
N          4.14466       -4.79279        0.78849
C          4.12679       -4.17514        2.13295
C          2.86030       -4.52666        2.93143
C          5.31435       -4.89715        0.03514
O          5.29379       -5.15561       -1.17125
C          6.65858       -4.69856        0.75496
O          6.87799       -3.40886        1.30961
C          7.04328       -2.41371        0.30584
H          0.32284       -0.07872       -0.84310
H          1.72636       -0.92686       -0.13935
H          1.60880        0.83023       -0.04708
H          1.01712       -0.25541        2.02779
H         -1.08342       -1.23083        2.35719
H         -1.40517       -1.15626        0.63815
H         -0.81003       -3.42974        1.30193
H          0.41471       -2.78443        0.19356
H          1.68752       -6.14211        1.20901
H          0.73241       -4.95024        0.33103
H          2.78742       -3.74761       -0.37721
H          2.92886       -5.45674       -0.81014
H          4.18728       -3.09069        1.98131
H          5.00288       -4.48875        2.70587
H          2.82995       -3.95686        3.86559
H          2.86309       -5.59131        3.19378
H          6.71818       -5.43399        1.56476
H          7.47061       -4.94437        0.05969
H          7.88789       -2.65845       -0.34514
H          6.12933       -2.30188       -0.28475
H          7.25077       -1.46113        0.80093

--Link1--
%chk=JID_7609.chk
%mem=8GB
%nprocshared=4
# B3LYP/6-311++G(d,p) empiricaldispersion=gd3bj scf=xqc pop=npa geom=check

CID_61713023_JID_7609_Energie_neutraal

0 1

--Link1--
%chk=JID_7609.chk
%mem=8GB
%nprocshared=4
# B3LYP/6-311++G(d,p) empiricaldispersion=gd3bj scf=xqc pop=npa geom=check

CID_61713023_JID_7609_Energie_kation

1 2

--Link1--
%chk=JID_7609.chk
%mem=8GB
%nprocshared=4
# B3LYP/6-311++G(d,p) empiricaldispersion=gd3bj scf=xqc pop=npa geom=check

CID_61713023_JID_7609_Energie_anion

-1 2
