%chk=JID_3955.chk
%mem=8GB
%nprocshared=4
# opt freq B3LYP/6-31G(d) empiricaldispersion=gd3bj scf=xqc

CID_131316851_JID_3955_neutraal

0 1
C          0.92439        0.06325       -0.01682
C          0.67357       -1.35336       -0.35545
C          1.14842       -2.55008        0.17636
C          0.50379       -3.55573       -0.54722
C         -0.29437       -2.92287       -1.44852
O         -0.21413       -1.58776       -1.38279
C         -1.09650       -3.77288       -2.34880
C         -0.43605       -5.17415       -2.01657
C          0.36791       -5.01614       -0.66323
C         -0.99409       -3.33934       -3.80809
C         -1.64131       -4.31544       -4.69075
N         -2.15577       -5.11317       -5.35764
O         -2.43560       -3.73173       -1.86386
H          0.48736        0.30307        0.95723
H          0.48719        0.73459       -0.76238
H          1.99965        0.26129        0.02879
H          1.85130       -2.64836        0.99154
H         -1.17676       -5.97663       -1.92944
H          0.28010       -5.45257       -2.80060
H         -0.21055       -5.42389        0.17178
H          1.33185       -5.52915       -0.72333
H         -1.47609       -2.36363       -3.94595
H          0.05576       -3.22404       -4.10534
H         -2.93637       -4.45695       -2.27546

--Link1--
%chk=JID_3955.chk
%mem=8GB
%nprocshared=4
# B3LYP/6-311++G(d,p) empiricaldispersion=gd3bj scf=xqc pop=npa geom=check

CID_131316851_JID_3955_Energie_neutraal

0 1

--Link1--
%chk=JID_3955.chk
%mem=8GB
%nprocshared=4
# B3LYP/6-311++G(d,p) empiricaldispersion=gd3bj scf=xqc pop=npa geom=check

CID_131316851_JID_3955_Energie_kation

1 2

--Link1--
%chk=JID_3955.chk
%mem=8GB
%nprocshared=4
# B3LYP/6-311++G(d,p) empiricaldispersion=gd3bj scf=xqc pop=npa geom=check

CID_131316851_JID_3955_Energie_anion

-1 2
