%chk=JID_3575.chk
%mem=8GB
%nprocshared=4
# opt freq B3LYP/6-31G(d) empiricaldispersion=gd3bj scf=xqc

CID_90296453_JID_3575_neutraal

0 1
C          1.06750        0.07373       -0.00272
C          0.57757        1.30254        0.78558
C          1.61296        2.51277        0.73039
C          2.73452        2.37121        1.79701
C          3.95159        1.55288        1.38799
C          4.52031        2.02761        0.05940
C          3.47036        2.01681       -1.04150
C          2.22117        2.81215       -0.66337
O          0.90261        3.69944        1.12395
C         -0.96050        1.61853        0.46893
C         -1.79153        0.30887        0.40563
C         -1.61307        2.45988        1.59500
C         -1.15890        2.34684       -0.87100
H          0.97906        0.22301       -1.08257
H          0.49887       -0.82375        0.26001
H          2.10039       -0.17953        0.22981
H          0.56556        0.97358        1.83558
H          3.09648        3.37441        2.06604
H          2.32135        1.97481        2.73300
H          3.70745        0.48862        1.34191
H          4.72305        1.64845        2.16179
H          5.36464        1.39139       -0.22929
H          4.91552        3.04459        0.17471
H          3.21410        0.98515       -1.29653
H          3.90312        2.44715       -1.95295
H          1.47065        2.68891       -1.44982
H          2.49232        3.87657       -0.70928
H          1.51213        4.45606        1.09665
H         -1.64712       -0.29352        1.30949
H         -2.86441        0.52021        0.32052
H         -1.53082       -0.30048       -0.46617
H         -1.31358        3.50959        1.57823
H         -2.70592        2.46650        1.49941
H         -1.37614        2.04965        2.58270
H         -0.70588        3.34226       -0.86917
H         -0.73373        1.77708       -1.70341
H         -2.22512        2.48700       -1.08599

--Link1--
%chk=JID_3575.chk
%mem=8GB
%nprocshared=4
# B3LYP/6-311++G(d,p) empiricaldispersion=gd3bj scf=xqc pop=npa geom=check

CID_90296453_JID_3575_Energie_neutraal

0 1

--Link1--
%chk=JID_3575.chk
%mem=8GB
%nprocshared=4
# B3LYP/6-311++G(d,p) empiricaldispersion=gd3bj scf=xqc pop=npa geom=check

CID_90296453_JID_3575_Energie_kation

1 2

--Link1--
%chk=JID_3575.chk
%mem=8GB
%nprocshared=4
# B3LYP/6-311++G(d,p) empiricaldispersion=gd3bj scf=xqc pop=npa geom=check

CID_90296453_JID_3575_Energie_anion

-1 2
