%chk=JID_1787.chk
%mem=8GB
%nprocshared=4
# opt freq B3LYP/6-31G(d) empiricaldispersion=gd3bj scf=xqc

CID_64502987_JID_1787_neutraal

0 1
C          0.92385        0.06131        0.02104
C          0.34138       -1.33527        0.27329
C          0.86556       -1.84164        1.62640
C         -1.21167       -1.33519        0.22145
C         -1.82162       -0.77889       -1.08764
C         -1.31470       -1.33279       -2.42768
C         -1.68647       -2.77504       -2.78655
C         -3.18244       -3.10689       -2.78122
C         -3.97476       -2.30750       -3.77612
C         -4.58296       -2.83411       -4.84650
N         -1.74069       -2.66547        0.53101
H          0.53443        0.78767        0.74251
H          0.69121        0.42239       -0.98461
H          2.01562        0.04905        0.11145
H          0.73106       -2.01041       -0.49931
H          0.48247       -1.23253        2.45228
H          0.57626       -2.88192        1.80582
H          1.96000       -1.80261        1.65793
H         -1.56791       -0.67926        1.02719
H         -2.91477       -0.86418       -1.04473
H         -1.63688        0.30396       -1.09963
H         -1.69436       -0.67469       -3.22000
H         -0.22452       -1.23657       -2.47993
H         -1.28610       -2.98480       -3.78777
H         -1.16410       -3.46694       -2.11882
H         -3.29437       -4.17868       -2.98943
H         -3.60993       -2.94941       -1.78589
H         -4.06772       -1.23874       -3.59484
H         -5.15053       -2.20683       -5.52722
H         -4.53021       -3.89509       -5.07030
H         -2.74835       -2.68871        0.38744
H         -1.33197       -3.36772       -0.07918

--Link1--
%chk=JID_1787.chk
%mem=8GB
%nprocshared=4
# B3LYP/6-311++G(d,p) empiricaldispersion=gd3bj scf=xqc pop=npa geom=check

CID_64502987_JID_1787_Energie_neutraal

0 1

--Link1--
%chk=JID_1787.chk
%mem=8GB
%nprocshared=4
# B3LYP/6-311++G(d,p) empiricaldispersion=gd3bj scf=xqc pop=npa geom=check

CID_64502987_JID_1787_Energie_kation

1 2

--Link1--
%chk=JID_1787.chk
%mem=8GB
%nprocshared=4
# B3LYP/6-311++G(d,p) empiricaldispersion=gd3bj scf=xqc pop=npa geom=check

CID_64502987_JID_1787_Energie_anion

-1 2
