%chk=JID_9938.chk
%mem=8GB
%nprocshared=4
# opt freq B3LYP/6-31G(d) empiricaldispersion=gd3bj scf=xqc

CID_70847453_JID_9938_neutraal

0 1
C          0.90257        0.02239        0.00241
C         -0.35178        0.81174        0.36768
C         -0.21133        1.54210        1.69706
O         -0.88696        1.68304       -0.62990
C         -0.01772        2.33592       -1.55159
C          0.81275        3.49874       -0.96824
N          2.14439        3.08770       -0.51690
C          2.74878        4.03345        0.44706
C          4.26610        3.79725        0.66861
N          4.62137        2.42040        0.34560
C          4.32630        2.02851       -1.03755
C          3.09195        2.77873       -1.59883
C          4.75338        1.50729        1.37745
O          4.83040        1.82653        2.55725
O          4.78379        0.22541        0.93024
C          4.87751       -0.89525        1.84563
C          6.25112       -0.92495        2.52052
C          3.73731       -0.90682        2.87116
C          4.73469       -2.13632        0.95036
H          0.81533       -0.41326       -0.99779
H          1.05364       -0.79627        0.71358
H          1.80296        0.63445        0.02404
H         -1.14492        0.06798        0.51690
H         -1.13804        2.07227        1.94189
H          0.01326        0.84130        2.50749
H          0.58296        2.28882        1.66906
H          0.57724        1.60074       -2.10029
H         -0.68669        2.77472       -2.30213
H          0.92047        4.28367       -1.72740
H          0.24904        3.93149       -0.13297
H          2.60380        5.07350        0.12883
H          2.23586        3.91667        1.40846
H          4.54241        4.05412        1.69619
H          4.84526        4.44252       -0.00297
H          4.15606        0.95073       -1.11412
H          5.20786        2.27127       -1.64091
H          2.64793        2.15444       -2.38098
H          3.41267        3.70703       -2.09012
H          6.39049       -0.07248        3.19235
H          6.38701       -1.83881        3.10867
H          7.05159       -0.86886        1.77421
H          2.77073       -0.74584        2.38389
H          3.69941       -1.85841        3.41281
H          3.84841       -0.11660        3.61935
H          3.77186       -2.12757        0.42543
H          5.50869       -2.14994        0.17419
H          4.80545       -3.06514        1.52610

--Link1--
%chk=JID_9938.chk
%mem=8GB
%nprocshared=4
# B3LYP/6-311++G(d,p) empiricaldispersion=gd3bj scf=xqc pop=npa geom=check

CID_70847453_JID_9938_Energie_neutraal

0 1

--Link1--
%chk=JID_9938.chk
%mem=8GB
%nprocshared=4
# B3LYP/6-311++G(d,p) empiricaldispersion=gd3bj scf=xqc pop=npa geom=check

CID_70847453_JID_9938_Energie_kation

1 2

--Link1--
%chk=JID_9938.chk
%mem=8GB
%nprocshared=4
# B3LYP/6-311++G(d,p) empiricaldispersion=gd3bj scf=xqc pop=npa geom=check

CID_70847453_JID_9938_Energie_anion

-1 2
