%chk=JID_4737.chk
%mem=8GB
%nprocshared=4
# opt freq B3LYP/6-31G(d) empiricaldispersion=gd3bj scf=xqc

CID_114898243_JID_4737_neutraal

0 1
C          1.08140        0.04975       -0.03000
C          1.11667       -0.09490       -1.54093
O          2.04848       -1.08443       -1.96877
C          3.43032       -0.73749       -1.84061
C          3.88579        0.30769       -2.88556
C          4.17877        1.65359       -2.22104
N          5.09350       -0.14082       -3.58293
C          5.25847       -0.66723       -4.82577
O          6.40734       -0.98291       -5.15304
C          4.10233       -0.90425       -5.77643
C          3.08861       -1.89996       -5.22454
C          3.45861        0.36059       -6.27445
O          3.74413        1.51006       -5.98321
O          2.47675        0.12603       -7.17214
H          0.96877       -0.92750        0.45024
H          0.25012        0.69249        0.27455
H          2.00596        0.49367        0.35029
H          0.13097       -0.42949       -1.88166
H          1.31044        0.86417       -2.02976
H          3.65688       -0.42914       -0.81480
H          3.97544       -1.67533       -1.99980
H          3.09356        0.46083       -3.62080
H          4.99463        1.56873       -1.49429
H          4.48236        2.39429       -2.96916
H          3.29955        2.04304       -1.69971
H          5.97253       -0.08068       -3.08050
H          4.56146       -1.36355       -6.66449
H          2.30394       -1.40973       -4.64191
H          2.58315       -2.41924       -6.04696
H          3.56578       -2.65907       -4.59627
H          2.17711        1.02019       -7.44090

--Link1--
%chk=JID_4737.chk
%mem=8GB
%nprocshared=4
# B3LYP/6-311++G(d,p) empiricaldispersion=gd3bj scf=xqc pop=npa geom=check

CID_114898243_JID_4737_Energie_neutraal

0 1

--Link1--
%chk=JID_4737.chk
%mem=8GB
%nprocshared=4
# B3LYP/6-311++G(d,p) empiricaldispersion=gd3bj scf=xqc pop=npa geom=check

CID_114898243_JID_4737_Energie_kation

1 2

--Link1--
%chk=JID_4737.chk
%mem=8GB
%nprocshared=4
# B3LYP/6-311++G(d,p) empiricaldispersion=gd3bj scf=xqc pop=npa geom=check

CID_114898243_JID_4737_Energie_anion

-1 2
