%chk=JID_8178.chk
%mem=8GB
%nprocshared=4
# opt freq B3LYP/6-31G(d) empiricaldispersion=gd3bj scf=xqc

CID_116935064_JID_8178_neutraal

0 1
C          2.49200        0.00400       -0.01400
C          0.99487        0.06351       -0.09548
C          0.22697       -1.09265        0.09912
C         -1.17346       -1.05448        0.01979
C         -1.83341        0.14919       -0.29686
C         -1.05350        1.30874       -0.47268
C          0.33628        1.26847       -0.34424
O          1.07718        2.40292       -0.55012
C          0.92098        3.31258        0.53942
C         -3.34420        0.27479       -0.48699
C         -3.81884       -0.35369       -1.83888
N         -4.03046       -1.81198       -1.76016
C         -4.32884       -2.42597       -3.05546
C         -3.09071       -2.53910       -3.94799
C         -4.89522       -3.82134       -2.78497
N         -4.10722       -0.25312        0.65665
O         -1.94742       -2.17506        0.18144
C         -1.45644       -3.14139        1.10616
H          2.85015       -1.02933        0.04257
H          2.94308        0.45644       -0.90319
H          2.84168        0.53265        0.87842
H          0.74190       -2.02992        0.28769
H         -1.52998        2.25204       -0.72951
H         -0.08055        3.75475        0.54624
H          1.13173        2.82585        1.49859
H          1.64537        4.12151        0.40510
H         -3.58829        1.34371       -0.53386
H         -4.77852        0.10614       -2.10655
H         -3.09808       -0.09490       -2.62209
H         -3.19418       -2.23764       -1.34921
H         -5.10147       -1.84684       -3.57572
H         -2.28288       -3.08398       -3.44651
H         -3.33101       -3.07605       -4.87232
H         -2.70714       -1.55584       -4.23646
H         -5.79564       -3.76639       -2.16277
H         -5.17196       -4.31476       -3.72309
H         -4.16723       -4.46033       -2.27171
H         -4.26855       -1.24279        0.44384
H         -3.51399       -0.23982        1.48243
H         -1.09627       -2.67433        2.02953
H         -2.28840       -3.80175        1.36919
H         -0.67694       -3.75562        0.64532

--Link1--
%chk=JID_8178.chk
%mem=8GB
%nprocshared=4
# B3LYP/6-311++G(d,p) empiricaldispersion=gd3bj scf=xqc pop=npa geom=check

CID_116935064_JID_8178_Energie_neutraal

0 1

--Link1--
%chk=JID_8178.chk
%mem=8GB
%nprocshared=4
# B3LYP/6-311++G(d,p) empiricaldispersion=gd3bj scf=xqc pop=npa geom=check

CID_116935064_JID_8178_Energie_kation

1 2

--Link1--
%chk=JID_8178.chk
%mem=8GB
%nprocshared=4
# B3LYP/6-311++G(d,p) empiricaldispersion=gd3bj scf=xqc pop=npa geom=check

CID_116935064_JID_8178_Energie_anion

-1 2
