%chk=JID_1605.chk
%mem=8GB
%nprocshared=4
# opt freq B3LYP/6-31G(d) empiricaldispersion=gd3bj scf=xqc

CID_116039998_JID_1605_neutraal

0 1
C          1.02840        0.07244        0.06281
C          0.44240        0.79867       -1.14618
C          1.00520        0.29882       -2.49830
N          0.91731       -1.15328       -2.71769
C          1.51379       -1.53700       -4.01378
C          3.04679       -1.48771       -3.93484
O          3.65599       -1.85828       -2.92885
N          3.75264       -1.01289       -5.00172
C          3.22019       -0.45863       -6.22045
S         -1.39700        0.88466       -1.05354
C         -1.86484       -0.83563       -1.36657
H          0.73813       -0.98130        0.10676
H          0.71273        0.54800        0.99825
H          2.12317        0.11083        0.03400
H          0.75363        1.84760       -1.05972
H          0.49350        0.82701       -3.31289
H          2.05893        0.60313       -2.54087
H          1.46312       -1.63185       -1.99320
H          1.23878       -2.57420       -4.23396
H          1.11004       -0.91395       -4.81508
H          4.75418       -0.98636       -4.84761
H          2.68299        0.46449       -5.98734
H          4.04990       -0.24319       -6.89746
H          2.53890       -1.17678       -6.68338
H         -1.73244       -1.08735       -2.42082
H         -1.30884       -1.52954       -0.73333
H         -2.92759       -0.95058       -1.13366

--Link1--
%chk=JID_1605.chk
%mem=8GB
%nprocshared=4
# B3LYP/6-311++G(d,p) empiricaldispersion=gd3bj scf=xqc pop=npa geom=check

CID_116039998_JID_1605_Energie_neutraal

0 1

--Link1--
%chk=JID_1605.chk
%mem=8GB
%nprocshared=4
# B3LYP/6-311++G(d,p) empiricaldispersion=gd3bj scf=xqc pop=npa geom=check

CID_116039998_JID_1605_Energie_kation

1 2

--Link1--
%chk=JID_1605.chk
%mem=8GB
%nprocshared=4
# B3LYP/6-311++G(d,p) empiricaldispersion=gd3bj scf=xqc pop=npa geom=check

CID_116039998_JID_1605_Energie_anion

-1 2
