%chk=JID_4565.chk
%mem=8GB
%nprocshared=4
# opt freq B3LYP/6-31G(d) empiricaldispersion=gd3bj scf=xqc

CID_64137532_JID_4565_neutraal

0 1
C          1.01673        0.04604       -0.08718
C          0.13130        1.09687        0.56321
C          0.73383        2.50754        0.54229
C          1.94009        2.65113        1.47978
C          2.43925        4.10667        1.52932
C          1.26656        5.06677        1.77541
C          0.10411        4.76952        0.84136
O         -0.29942        3.40629        0.96649
C          3.53786        4.26206        2.62197
N          4.07975        5.62361        2.64121
C          5.13259        5.84742        3.63090
C          6.43902        5.13276        3.28329
C          5.37657        7.35628        3.71456
O          3.02002        4.42444        0.24852
H          1.25217        0.31762       -1.12102
H          0.50445       -0.92134       -0.09995
H          1.95539       -0.08245        0.45932
H         -0.83442        1.11477        0.04200
H         -0.09800        0.80234        1.59497
H          1.01275        2.75568       -0.48995
H          2.74892        1.99147        1.14584
H          1.64715        2.34196        2.49156
H          0.92142        4.95353        2.81088
H          1.57058        6.10961        1.63002
H          0.35333        4.98825       -0.20352
H         -0.75391        5.39433        1.10965
H          3.12014        4.01302        3.60460
H          4.34222        3.55112        2.40240
H          4.38032        5.89042        1.70251
H          4.78868        5.51131        4.61670
H          6.79022        5.40274        2.28123
H          7.22608        5.40191        3.99658
H          6.32613        4.04502        3.32355
H          4.45676        7.88984        3.97991
H          6.12362        7.58572        4.48226
H          5.73929        7.76010        2.76215
H          3.83785        3.90615        0.15803

--Link1--
%chk=JID_4565.chk
%mem=8GB
%nprocshared=4
# B3LYP/6-311++G(d,p) empiricaldispersion=gd3bj scf=xqc pop=npa geom=check

CID_64137532_JID_4565_Energie_neutraal

0 1

--Link1--
%chk=JID_4565.chk
%mem=8GB
%nprocshared=4
# B3LYP/6-311++G(d,p) empiricaldispersion=gd3bj scf=xqc pop=npa geom=check

CID_64137532_JID_4565_Energie_kation

1 2

--Link1--
%chk=JID_4565.chk
%mem=8GB
%nprocshared=4
# B3LYP/6-311++G(d,p) empiricaldispersion=gd3bj scf=xqc pop=npa geom=check

CID_64137532_JID_4565_Energie_anion

-1 2
