%chk=JID_9172.chk
%mem=8GB
%nprocshared=4
# opt freq B3LYP/6-31G(d) empiricaldispersion=gd3bj scf=xqc

CID_102797339_JID_9172_neutraal

0 1
C          1.05415       -0.02745        0.07946
C          0.76423        1.10810       -0.90310
C         -0.65473        1.71008       -0.71183
N         -0.67962        2.71706        0.34650
C          0.31855        3.77308        0.19559
C          1.74571        3.17969        0.06393
N          1.87317        2.09786       -0.94841
C          2.33369        2.77551        1.41735
C         -1.20764        2.43557        1.55556
N         -1.90696        1.34744        1.88844
N         -2.21953        1.59088        3.16599
C         -1.72025        2.78894        3.58680
N         -1.07303        3.33605        2.58096
C         -1.95579        3.36040        4.95239
C         -1.72651        2.32717        6.06811
C         -1.42995        3.14532        7.32299
C         -0.90130        4.49287        6.83684
C         -0.89996        4.42135        5.31196
C         -3.37485        3.95364        5.01845
H          0.35641       -0.85602       -0.08721
H          0.94879        0.27510        1.12265
H          2.06630       -0.42180       -0.06301
H          0.76180        0.62891       -1.89184
H         -0.94310        2.20865       -1.64707
H         -1.39415        0.91384       -0.56303
H          0.28655        4.51846        0.99921
H          0.08637        4.32424       -0.72560
H          2.38852        3.99451       -0.29597
H          1.81766        2.55109       -1.86170
H          3.32941        2.33494        1.29631
H          2.44447        3.65856        2.05701
H          1.70924        2.06415        1.96027
H         -2.77654        0.91661        3.67684
H         -2.58147        1.65818        6.21611
H         -0.85681        1.69561        5.84190
H         -0.70744        2.63451        7.96768
H         -2.34325        3.29227        7.91097
H          0.10110        4.70001        7.22525
H         -1.55727        5.29959        7.18368
H          0.09795        4.11031        4.97417
H         -1.10275        5.39841        4.85953
H         -3.51127        4.73029        4.25638
H         -4.13416        3.18325        4.83903
H         -3.59323        4.40639        5.99117

--Link1--
%chk=JID_9172.chk
%mem=8GB
%nprocshared=4
# B3LYP/6-311++G(d,p) empiricaldispersion=gd3bj scf=xqc pop=npa geom=check

CID_102797339_JID_9172_Energie_neutraal

0 1

--Link1--
%chk=JID_9172.chk
%mem=8GB
%nprocshared=4
# B3LYP/6-311++G(d,p) empiricaldispersion=gd3bj scf=xqc pop=npa geom=check

CID_102797339_JID_9172_Energie_kation

1 2

--Link1--
%chk=JID_9172.chk
%mem=8GB
%nprocshared=4
# B3LYP/6-311++G(d,p) empiricaldispersion=gd3bj scf=xqc pop=npa geom=check

CID_102797339_JID_9172_Energie_anion

-1 2
