%chk=JID_5117.chk
%mem=8GB
%nprocshared=4
# opt freq B3LYP/6-31G(d) empiricaldispersion=gd3bj scf=xqc

CID_115712926_JID_5117_neutraal

0 1
C          0.99573        0.04881       -0.08718
C          0.59717       -0.66598       -1.37303
C          0.71577       -2.20696       -1.30467
C         -0.11426       -2.86051       -0.16805
C         -1.60557       -2.92340       -0.37985
C         -2.35884       -4.02032       -0.75522
C         -3.74898       -3.72749       -0.84573
C         -4.01945       -2.42126       -0.51027
S         -2.60685       -1.56832       -0.06738
N          0.42191       -2.69869       -2.65938
C          1.20976       -3.83298       -3.11697
C          0.54913       -5.13386       -2.78565
C         -0.59801       -5.65105       -3.62393
C          0.72142       -6.37711       -3.63780
C          1.55006       -6.40425       -4.87660
H          0.27823       -0.13177        0.71751
H          1.03051        1.12997       -0.25697
H          1.98633       -0.27166        0.25022
H         -0.41368       -0.35806       -1.66201
H          1.26123       -0.29916       -2.16823
H          1.77154       -2.40597       -1.07400
H          0.24700       -3.88749       -0.02879
H          0.09587       -2.36788        0.78862
H         -1.93056       -4.99379       -0.95741
H         -4.51130       -4.44054       -1.13474
H         -4.98167       -1.92838       -0.48881
H         -0.57520       -2.86328       -2.79126
H          1.31074       -3.72539       -4.20191
H          2.23036       -3.81367       -2.71836
H          0.52636       -5.31066       -1.71730
H         -1.42901       -6.12955       -3.11880
H         -0.89079       -5.08361       -4.50094
H          0.78176       -7.32379       -3.10972
H          2.61359       -6.39381       -4.61932
H          1.34681       -7.32131       -5.43906
H          1.34590       -5.55893       -5.54053

--Link1--
%chk=JID_5117.chk
%mem=8GB
%nprocshared=4
# B3LYP/6-311++G(d,p) empiricaldispersion=gd3bj scf=xqc pop=npa geom=check

CID_115712926_JID_5117_Energie_neutraal

0 1

--Link1--
%chk=JID_5117.chk
%mem=8GB
%nprocshared=4
# B3LYP/6-311++G(d,p) empiricaldispersion=gd3bj scf=xqc pop=npa geom=check

CID_115712926_JID_5117_Energie_kation

1 2

--Link1--
%chk=JID_5117.chk
%mem=8GB
%nprocshared=4
# B3LYP/6-311++G(d,p) empiricaldispersion=gd3bj scf=xqc pop=npa geom=check

CID_115712926_JID_5117_Energie_anion

-1 2
