%chk=JID_5529.chk
%mem=8GB
%nprocshared=4
# opt freq B3LYP/6-31G(d) empiricaldispersion=gd3bj scf=xqc

CID_115246125_JID_5529_neutraal

0 1
C          0.92854        0.06522        0.02530
N          0.46919       -0.62017        1.21259
C         -0.97108       -0.52455        1.47166
C         -1.85805       -1.53535        0.71577
C         -1.32896       -3.01755        0.73409
C         -2.76166       -3.48316        1.04502
C         -3.01657       -2.08446        1.63141
C         -2.28604       -1.09755       -0.70976
N         -2.92875        0.21992       -0.80939
C         -2.11111        1.34386       -1.26225
C         -4.23346        0.46012       -0.49558
C         -4.88918        1.63793       -0.18646
C         -6.25541        1.34143        0.03795
C         -6.41263       -0.00959       -0.16047
N         -5.18872       -0.52757       -0.49765
H          0.60750        1.11093        0.01362
H          0.60048       -0.43179       -0.88944
H          2.02336        0.06822        0.01370
H          0.79331       -1.58364        1.23429
H         -1.06460       -0.71384        2.54840
H         -1.32893        0.50281        1.35035
H         -0.90549       -3.39543       -0.20109
H         -0.63145       -3.25157        1.54782
H         -2.84592       -4.31471        1.74959
H         -3.36171       -3.71443        0.15825
H         -2.81137       -2.04555        2.70929
H         -4.02145       -1.69212        1.48364
H         -1.40581       -1.12004       -1.36186
H         -2.94546       -1.85070       -1.15831
H         -2.65146        1.94922       -1.99978
H         -1.83295        1.98653       -0.42096
H         -1.19423        1.00827       -1.75593
H         -4.42926        2.61374       -0.11362
H         -7.03553        2.04008        0.30946
H         -7.28493       -0.64533       -0.09900
H         -5.01582       -1.49405       -0.72469

--Link1--
%chk=JID_5529.chk
%mem=8GB
%nprocshared=4
# B3LYP/6-311++G(d,p) empiricaldispersion=gd3bj scf=xqc pop=npa geom=check

CID_115246125_JID_5529_Energie_neutraal

0 1

--Link1--
%chk=JID_5529.chk
%mem=8GB
%nprocshared=4
# B3LYP/6-311++G(d,p) empiricaldispersion=gd3bj scf=xqc pop=npa geom=check

CID_115246125_JID_5529_Energie_kation

1 2

--Link1--
%chk=JID_5529.chk
%mem=8GB
%nprocshared=4
# B3LYP/6-311++G(d,p) empiricaldispersion=gd3bj scf=xqc pop=npa geom=check

CID_115246125_JID_5529_Energie_anion

-1 2
