%chk=JID_10115.chk
%mem=8GB
%nprocshared=4
# opt freq B3LYP/6-31G(d) empiricaldispersion=gd3bj scf=xqc

CID_120210700_JID_10115_neutraal

0 1
C          0.90273       -0.01066       -0.02063
C          0.52768       -0.09854       -1.51494
C          1.67758       -0.80332       -2.25882
C         -0.75547       -0.94646       -1.62735
N          0.29762        1.22746       -2.11819
C          0.46341        2.46333       -1.55340
C          0.06319        3.39387       -2.49206
C         -0.26287        2.61293       -3.61917
N         -0.12587        1.30419       -3.40019
C          0.00855        4.83379       -2.38256
O         -0.16577        5.57271       -3.34539
N          0.20450        5.37099       -1.12395
C         -1.00508        5.71971       -0.32362
C         -0.56006        6.12540        1.09568
C         -0.18174        4.85610        1.84072
S         -1.41815        3.63300        1.34196
C         -2.02361        4.59077       -0.08859
C         -1.62932        6.96366       -0.97997
O         -1.04534        8.02591       -1.14619
O         -2.87361        6.79337       -1.45765
H          1.05044       -1.00868        0.40841
H          0.11644        0.48319        0.56179
H          1.83427        0.54743        0.12864
H          1.88767       -1.78668       -1.82300
H          1.44096       -0.95763       -3.31787
H          2.59899       -0.21108       -2.21226
H         -1.60042       -0.44876       -1.13696
H         -1.03846       -1.12093       -2.67175
H         -0.62455       -1.92788       -1.15742
H          0.82904        2.59134       -0.54558
H         -0.60309        2.95225       -4.58988
H          0.69274        6.24758       -1.29038
H         -1.37693        6.63835        1.62291
H          0.28606        6.82337        1.08099
H          0.81104        4.50180        1.54669
H         -0.19172        5.00356        2.92408
H         -3.00410        4.98275        0.20273
H         -2.17609        3.93993       -0.95196
H         -3.06377        7.62312       -1.94740

--Link1--
%chk=JID_10115.chk
%mem=8GB
%nprocshared=4
# B3LYP/6-311++G(d,p) empiricaldispersion=gd3bj scf=xqc pop=npa geom=check

CID_120210700_JID_10115_Energie_neutraal

0 1

--Link1--
%chk=JID_10115.chk
%mem=8GB
%nprocshared=4
# B3LYP/6-311++G(d,p) empiricaldispersion=gd3bj scf=xqc pop=npa geom=check

CID_120210700_JID_10115_Energie_kation

1 2

--Link1--
%chk=JID_10115.chk
%mem=8GB
%nprocshared=4
# B3LYP/6-311++G(d,p) empiricaldispersion=gd3bj scf=xqc pop=npa geom=check

CID_120210700_JID_10115_Energie_anion

-1 2
