%chk=JID_7389.chk
%mem=8GB
%nprocshared=4
# opt freq B3LYP/6-31G(d) empiricaldispersion=gd3bj scf=xqc

CID_80839563_JID_7389_neutraal

0 1
C          1.09025        0.02063        0.03781
C          0.14128       -0.90894        0.80289
C          0.25720       -0.69489        2.31426
C         -1.30885       -0.85668        0.34544
C         -2.01658        0.32390        0.13045
N         -3.27105        0.36208       -0.33332
C         -3.84345       -0.81760       -0.57078
N         -3.29358       -2.01371       -0.35790
C         -2.03512       -2.03354        0.11091
N         -1.43114       -3.28370        0.36699
C         -2.24722       -4.48313        0.11382
C         -2.21168       -4.82431       -1.37955
C         -1.68543       -5.68304        0.91393
C         -1.71781       -5.47801        2.40725
C         -3.02425       -5.34164        3.14640
C         -2.19693       -6.58472        3.31276
N         -1.48174        1.58660        0.37302
H          0.97696        1.07034        0.32195
H          0.93933       -0.06295       -1.04391
H          2.13139       -0.24918        0.24992
H          0.53577       -1.91177        0.59729
H         -0.05891        0.30881        2.61415
H         -0.36123       -1.41451        2.86227
H          1.29353       -0.82839        2.64337
H         -4.85357       -0.80481       -0.96337
H         -1.10264       -3.26015        1.32768
H         -3.28497       -4.32878        0.43458
H         -1.18424       -4.99269       -1.72208
H         -2.79079       -5.73090       -1.58487
H         -2.63111       -4.01943       -1.99109
H         -2.25896       -6.58170        0.65304
H         -0.64634       -5.87797        0.61906
H         -0.87255       -4.89585        2.75833
H         -3.06571       -4.64213        3.97419
H         -3.95319       -5.42287        2.59340
H         -2.57111       -7.50201        2.87234
H         -1.68154       -6.72842        4.25600
H         -2.21413        2.25963        0.15876
H         -1.16501        1.68318        1.32935

--Link1--
%chk=JID_7389.chk
%mem=8GB
%nprocshared=4
# B3LYP/6-311++G(d,p) empiricaldispersion=gd3bj scf=xqc pop=npa geom=check

CID_80839563_JID_7389_Energie_neutraal

0 1

--Link1--
%chk=JID_7389.chk
%mem=8GB
%nprocshared=4
# B3LYP/6-311++G(d,p) empiricaldispersion=gd3bj scf=xqc pop=npa geom=check

CID_80839563_JID_7389_Energie_kation

1 2

--Link1--
%chk=JID_7389.chk
%mem=8GB
%nprocshared=4
# B3LYP/6-311++G(d,p) empiricaldispersion=gd3bj scf=xqc pop=npa geom=check

CID_80839563_JID_7389_Energie_anion

-1 2
