%chk=JID_5659.chk
%mem=8GB
%nprocshared=4
# opt freq B3LYP/6-31G(d) empiricaldispersion=gd3bj scf=xqc

CID_135307666_JID_5659_neutraal

0 1
C          0.92708        0.01740       -0.06618
C         -0.12597        0.32444       -1.13248
C          0.49813        0.20219       -2.52364
C         -1.33776       -0.60961       -0.99253
C         -2.55877        0.11175       -0.45221
O         -3.55609        0.28565       -1.15514
C         -2.52341        0.56828        0.98263
C          1.13852        3.52465        2.22773
S          0.39420        4.49764        0.89736
O         -0.77893        3.72177        0.37709
C          1.75353        4.27871       -0.27552
C          3.43566       -3.49237        0.74362
S          1.90337       -4.30694        0.23118
O          0.76058       -3.45207        0.69387
C          2.12560       -4.01175       -1.54020
H          0.50376        0.09027        0.94039
H          1.76076        0.72423       -0.13019
H          1.33639       -0.98840       -0.19281
H         -0.44005        1.36757       -1.00832
H          0.83827       -0.82022       -2.71966
H         -0.22704        0.47451       -3.29798
H          1.35897        0.87188       -2.62387
H         -1.62373       -1.02829       -1.96550
H         -1.13182       -1.46358       -0.33753
H         -2.37266       -0.29379        1.63682
H         -1.72288        1.29500        1.12892
H         -3.47495        1.04261        1.23942
H          1.33114        2.50662        1.88221
H          0.44132        3.49516        3.06839
H          2.07107        3.99515        2.54733
H          1.49814        4.79350       -1.20470
H          2.66706        4.71179        0.13833
H          1.90194        3.21627       -0.48048
H          3.49513       -3.51680        1.83426
H          3.43863       -2.45371        0.40455
H          4.29101       -4.02595        0.32278
H          2.21112       -2.93980       -1.73275
H          3.02538       -4.52664       -1.88500
H          1.25659       -4.40707       -2.07119

--Link1--
%chk=JID_5659.chk
%mem=8GB
%nprocshared=4
# B3LYP/6-311++G(d,p) empiricaldispersion=gd3bj scf=xqc pop=npa geom=check

CID_135307666_JID_5659_Energie_neutraal

0 1

--Link1--
%chk=JID_5659.chk
%mem=8GB
%nprocshared=4
# B3LYP/6-311++G(d,p) empiricaldispersion=gd3bj scf=xqc pop=npa geom=check

CID_135307666_JID_5659_Energie_kation

1 2

--Link1--
%chk=JID_5659.chk
%mem=8GB
%nprocshared=4
# B3LYP/6-311++G(d,p) empiricaldispersion=gd3bj scf=xqc pop=npa geom=check

CID_135307666_JID_5659_Energie_anion

-1 2
