%chk=JID_5864.chk
%mem=8GB
%nprocshared=4
# opt freq B3LYP/6-31G(d) empiricaldispersion=gd3bj scf=xqc

CID_115597978_JID_5864_neutraal

0 1
C          1.07164       -0.03050       -0.06275
C          0.50131        0.07424       -1.46503
N         -0.12351       -1.17869       -1.86778
C         -0.88346       -1.34031       -2.96497
S         -0.53342       -2.61006       -3.99166
N         -1.94555       -0.57541       -3.25082
C         -2.78584        0.31965       -2.46978
C         -2.97220        0.05782       -0.96711
O         -3.16648        1.33464       -0.29827
C         -2.66578        2.25789       -1.18166
C         -2.46278        3.58747       -0.87419
C         -1.94939        4.41848       -1.87262
C         -1.66087        3.90761       -3.14951
C         -1.88525        2.56035       -3.44468
C         -2.38281        1.74524       -2.44097
H          0.28240       -0.24606        0.66475
H          1.55648        0.90759        0.22353
H          1.81315       -0.83358        0.00106
H         -0.20327        0.89575       -1.51796
H          1.29941        0.28566       -2.18522
H          0.53363       -1.94974       -1.80747
H         -2.36297       -0.84661       -4.13311
H         -3.77517        0.28021       -2.94620
H         -2.12264       -0.43388       -0.48756
H         -3.85274       -0.56865       -0.78566
H         -2.69362        3.97186        0.11295
H         -1.77559        5.47115       -1.66199
H         -1.26742        4.57046       -3.91706
H         -1.67625        2.16745       -4.43463

--Link1--
%chk=JID_5864.chk
%mem=8GB
%nprocshared=4
# B3LYP/6-311++G(d,p) empiricaldispersion=gd3bj scf=xqc pop=npa geom=check

CID_115597978_JID_5864_Energie_neutraal

0 1

--Link1--
%chk=JID_5864.chk
%mem=8GB
%nprocshared=4
# B3LYP/6-311++G(d,p) empiricaldispersion=gd3bj scf=xqc pop=npa geom=check

CID_115597978_JID_5864_Energie_kation

1 2

--Link1--
%chk=JID_5864.chk
%mem=8GB
%nprocshared=4
# B3LYP/6-311++G(d,p) empiricaldispersion=gd3bj scf=xqc pop=npa geom=check

CID_115597978_JID_5864_Energie_anion

-1 2
