%chk=JID_8072.chk
%mem=8GB
%nprocshared=4
# opt freq B3LYP/6-31G(d) empiricaldispersion=gd3bj scf=xqc

CID_83106960_JID_8072_neutraal

0 1
C         -0.71700        1.22600        0.24100
C          0.41117        0.85842       -0.73189
O          1.06571       -0.35591       -0.32199
C          0.12594       -1.44858       -0.33241
C         -1.06155       -1.21610        0.62354
N         -1.68574        0.12483        0.41466
C         -2.73263        0.10749       -0.52270
N         -2.59868        0.75961       -1.68729
C         -3.63354        0.74216       -2.52970
N         -4.77682        0.09175       -2.32864
C         -4.90404       -0.55979       -1.15895
C         -3.89867       -0.56638       -0.21539
N         -6.12837       -1.21832       -0.85018
N         -7.13516       -1.18447       -1.85159
N         -3.48328        1.40450       -3.73089
C         -0.65455       -1.39827        2.09967
O         -1.38340       -1.94879        2.92388
N          0.54746       -0.88220        2.49146
H         -0.27675        1.43100        1.22398
H         -1.20764        2.15863       -0.06413
H          0.05322        0.74140       -1.76042
H          1.16596        1.65122       -0.73485
H          0.67681       -2.35181       -0.04849
H         -0.22751       -1.59037       -1.36108
H         -1.78018       -2.02685        0.43903
H         -4.02917       -1.05029        0.74432
H         -5.93811       -2.15212       -0.47939
H         -7.52374       -0.23530       -1.87334
H         -6.68343       -1.26503       -2.77070
H         -4.10217        1.00910       -4.42404
H         -2.50501        1.48248       -3.96683
H          1.19576       -0.46732        1.82967
H          0.82453       -0.98645        3.45790

--Link1--
%chk=JID_8072.chk
%mem=8GB
%nprocshared=4
# B3LYP/6-311++G(d,p) empiricaldispersion=gd3bj scf=xqc pop=npa geom=check

CID_83106960_JID_8072_Energie_neutraal

0 1

--Link1--
%chk=JID_8072.chk
%mem=8GB
%nprocshared=4
# B3LYP/6-311++G(d,p) empiricaldispersion=gd3bj scf=xqc pop=npa geom=check

CID_83106960_JID_8072_Energie_kation

1 2

--Link1--
%chk=JID_8072.chk
%mem=8GB
%nprocshared=4
# B3LYP/6-311++G(d,p) empiricaldispersion=gd3bj scf=xqc pop=npa geom=check

CID_83106960_JID_8072_Energie_anion

-1 2
