%chk=JID_2986.chk
%mem=8GB
%nprocshared=4
# opt freq B3LYP/6-31G(d) empiricaldispersion=gd3bj scf=xqc

CID_80743163_JID_2986_neutraal

0 1
C          1.05989       -0.05906       -0.05408
C          0.45433        0.06758       -1.44663
C          0.95306       -0.98183       -2.38062
C          1.58547       -0.85836       -3.59934
N          1.77809       -2.14512       -4.00089
N          1.29849       -3.01957       -3.09665
N          0.78229       -2.31581       -2.09964
C          2.40166       -2.62425       -5.21094
C          3.84861       -2.97793       -4.97186
O          4.77467       -2.42846       -5.56166
N          4.08945       -3.99937       -4.09611
O         -0.96908        0.01109       -1.32643
H          0.77522       -1.00608        0.41891
H          0.68845        0.73975        0.59708
H          2.15294       -0.00531       -0.08593
H          0.69914        1.05809       -1.84645
H          1.89335       -0.00330       -4.18365
H          1.85200       -3.50090       -5.56831
H          2.33386       -1.83617       -5.96763
H          3.38760       -4.27329       -3.41298
H          5.05692       -4.19177       -3.86773
H         -1.19000       -0.93096       -1.20541

--Link1--
%chk=JID_2986.chk
%mem=8GB
%nprocshared=4
# B3LYP/6-311++G(d,p) empiricaldispersion=gd3bj scf=xqc pop=npa geom=check

CID_80743163_JID_2986_Energie_neutraal

0 1

--Link1--
%chk=JID_2986.chk
%mem=8GB
%nprocshared=4
# B3LYP/6-311++G(d,p) empiricaldispersion=gd3bj scf=xqc pop=npa geom=check

CID_80743163_JID_2986_Energie_kation

1 2

--Link1--
%chk=JID_2986.chk
%mem=8GB
%nprocshared=4
# B3LYP/6-311++G(d,p) empiricaldispersion=gd3bj scf=xqc pop=npa geom=check

CID_80743163_JID_2986_Energie_anion

-1 2
