%chk=JID_9303.chk
%mem=8GB
%nprocshared=4
# opt freq B3LYP/6-31G(d) empiricaldispersion=gd3bj scf=xqc

CID_79226647_JID_9303_neutraal

0 1
C          2.37300        0.04000       -0.25700
C          1.42615        1.22072        0.01081
C          0.26417        0.42780        0.50260
C         -0.84579        0.82378        1.22765
C         -1.83704       -0.12667        1.48832
C         -1.70383       -1.44754        1.02647
C         -0.56930       -1.83835        0.31276
C          0.40190       -0.88798        0.08084
O          1.57737       -1.12597       -0.58515
C          1.12786        1.97517       -1.29061
O          0.44804        3.20915       -1.03392
C         -0.92450        3.20789       -1.43171
C         -1.10069        3.17174       -2.92973
C         -1.86074        2.15839       -3.52717
C         -2.01372        2.11190       -4.91539
C         -1.45555        3.09977       -5.72846
C         -0.65271        4.07765       -5.13652
C         -0.49326        4.12996       -3.74810
N         -1.50517        2.97433       -7.12233
H          2.96005       -0.20380        0.63925
H          3.07900        0.23280       -1.07178
H          1.82739        1.89059        0.77812
H         -0.95477        1.84761        1.57155
H         -2.72471        0.15865        2.04834
H         -2.48798       -2.17217        1.23172
H         -0.44828       -2.85587       -0.04085
H          2.07840        2.25972       -1.75678
H          0.59496        1.34733       -2.01440
H         -1.45496        2.38153       -0.95076
H         -1.37511        4.13265       -1.05362
H         -2.31786        1.38063       -2.91897
H         -2.57323        1.29125       -5.35609
H         -0.13863        4.80973       -5.75322
H          0.12816        4.90683       -3.30777
H         -1.36912        3.85179       -7.61385
H         -2.31996        2.46892       -7.45553

--Link1--
%chk=JID_9303.chk
%mem=8GB
%nprocshared=4
# B3LYP/6-311++G(d,p) empiricaldispersion=gd3bj scf=xqc pop=npa geom=check

CID_79226647_JID_9303_Energie_neutraal

0 1

--Link1--
%chk=JID_9303.chk
%mem=8GB
%nprocshared=4
# B3LYP/6-311++G(d,p) empiricaldispersion=gd3bj scf=xqc pop=npa geom=check

CID_79226647_JID_9303_Energie_kation

1 2

--Link1--
%chk=JID_9303.chk
%mem=8GB
%nprocshared=4
# B3LYP/6-311++G(d,p) empiricaldispersion=gd3bj scf=xqc pop=npa geom=check

CID_79226647_JID_9303_Energie_anion

-1 2
