%chk=JID_7797.chk
%mem=8GB
%nprocshared=4
# opt freq B3LYP/6-31G(d) empiricaldispersion=gd3bj scf=xqc

CID_116308526_JID_7797_neutraal

0 1
C          1.13300        1.27300        0.29400
C          1.40443        0.14090       -0.69496
C          0.80830       -1.21716       -0.26956
C         -0.71685       -1.12863       -0.07607
S         -1.20191        0.10004        1.17930
C         -0.34946        1.54572        0.49549
N          1.24173       -2.18351       -1.28932
C          0.93093       -3.59052       -1.02637
C         -0.41341       -4.10259       -1.49747
C         -1.11751       -3.53027       -2.57658
C         -2.31814       -4.08414       -3.05633
C         -2.83412       -5.24895       -2.49783
C         -2.13869       -5.82449       -1.45152
C         -0.96268       -5.25974       -0.94084
N         -0.37757       -6.07455        0.06828
C         -1.47400       -6.98285        0.44889
C         -2.42350       -7.10791       -0.75068
H          1.61186        1.04789        1.25544
H          1.60974        2.18662       -0.08160
H          1.01248        0.43005       -1.67980
H          2.49244        0.04376       -0.80896
H          1.27226       -1.50117        0.68475
H         -1.21823       -0.87229       -1.01562
H         -1.11876       -2.08635        0.26603
H         -0.48165        2.38090        1.19063
H         -0.82673        1.82711       -0.44914
H          0.97159       -1.91044       -2.22775
H          1.69165       -4.18921       -1.54237
H          1.06300       -3.78603        0.04403
H         -0.74067       -2.64769       -3.08457
H         -2.83136       -3.61222       -3.89087
H         -3.73965       -5.69998       -2.88906
H         -0.01860       -5.51690        0.83846
H         -1.08185       -7.95900        0.75237
H         -2.00759       -6.55735        1.30907
H         -3.46540       -7.20283       -0.43347
H         -2.14513       -7.95395       -1.38788

--Link1--
%chk=JID_7797.chk
%mem=8GB
%nprocshared=4
# B3LYP/6-311++G(d,p) empiricaldispersion=gd3bj scf=xqc pop=npa geom=check

CID_116308526_JID_7797_Energie_neutraal

0 1

--Link1--
%chk=JID_7797.chk
%mem=8GB
%nprocshared=4
# B3LYP/6-311++G(d,p) empiricaldispersion=gd3bj scf=xqc pop=npa geom=check

CID_116308526_JID_7797_Energie_kation

1 2

--Link1--
%chk=JID_7797.chk
%mem=8GB
%nprocshared=4
# B3LYP/6-311++G(d,p) empiricaldispersion=gd3bj scf=xqc pop=npa geom=check

CID_116308526_JID_7797_Energie_anion

-1 2
