%chk=JID_3487.chk
%mem=8GB
%nprocshared=4
# opt freq B3LYP/6-31G(d) empiricaldispersion=gd3bj scf=xqc

CID_81907821_JID_3487_neutraal

0 1
C          1.02233        0.04314       -0.08741
C          0.89729        0.38592        1.39095
N          1.33027        1.75705        1.66189
C          0.31448        2.69585        2.16863
C          0.09965        2.73075        3.71546
C          1.40951        3.08211        4.45059
C         -0.91087        3.86290        4.01898
C         -0.42377        1.39153        4.29375
N         -1.72186        0.97144        3.76616
C          2.68778        1.99556        1.65556
O          3.53579        1.10525        1.70083
N          3.12350        3.28437        1.59499
C          2.66678        4.20935        0.58054
H          0.42790        0.73156       -0.69734
H          0.66590       -0.97491       -0.27218
H          2.06031        0.10641       -0.42889
H         -0.14694        0.25764        1.68581
H          1.49963       -0.30822        1.98773
H          0.58410        3.70697        1.85591
H         -0.62773        2.47653        1.65064
H          1.84499        4.01094        4.06660
H          1.23140        3.22551        5.52299
H          2.15472        2.28624        4.35404
H         -1.84794        3.72892        3.46785
H         -1.15163        3.90405        5.08731
H         -0.50448        4.84034        3.73389
H          0.30399        0.59362        4.11030
H         -0.51553        1.47071        5.38450
H         -1.95759        0.05974        4.15946
H         -2.44791        1.60606        4.09711
H          4.12884        3.28599        1.71337
H          2.33465        5.12678        1.07179
H          3.51540        4.44377       -0.06892
H          1.86951        3.78257       -0.03316

--Link1--
%chk=JID_3487.chk
%mem=8GB
%nprocshared=4
# B3LYP/6-311++G(d,p) empiricaldispersion=gd3bj scf=xqc pop=npa geom=check

CID_81907821_JID_3487_Energie_neutraal

0 1

--Link1--
%chk=JID_3487.chk
%mem=8GB
%nprocshared=4
# B3LYP/6-311++G(d,p) empiricaldispersion=gd3bj scf=xqc pop=npa geom=check

CID_81907821_JID_3487_Energie_kation

1 2

--Link1--
%chk=JID_3487.chk
%mem=8GB
%nprocshared=4
# B3LYP/6-311++G(d,p) empiricaldispersion=gd3bj scf=xqc pop=npa geom=check

CID_81907821_JID_3487_Energie_anion

-1 2
