%chk=JID_5132.chk
%mem=8GB
%nprocshared=4
# opt freq B3LYP/6-31G(d) empiricaldispersion=gd3bj scf=xqc

CID_146850317_JID_5132_neutraal

0 1
C          1.02325       -0.09262        0.02970
C          0.48468        0.09535       -1.38569
N          1.23924       -0.63403       -2.41036
C          0.57952       -0.64884       -3.71866
C          0.35390        0.68874       -4.41625
C          2.69051       -0.38766       -2.45092
C          3.20331        1.00441       -2.79837
N          2.61467        2.08190       -2.22515
C          3.09027        3.31823       -2.51302
C          4.18472        3.52426       -3.34317
C          4.80480        2.41290       -3.90589
C          4.31199        1.14007       -3.63216
C          2.34878        4.45456       -1.87236
O          1.53883        4.26291       -0.96668
C          2.62649        5.85241       -2.36291
H          1.13180       -1.15457        0.27384
H          0.32753        0.34602        0.75292
H          1.99054        0.39932        0.16849
H         -0.54497       -0.28549       -1.38179
H          0.40838        1.16501       -1.60218
H          1.13461       -1.30919       -4.39693
H         -0.39825       -1.13376       -3.59905
H          1.29353        1.15697       -4.71794
H         -0.23181        0.53059       -5.32854
H         -0.20504        1.39055       -3.79086
H          3.14042       -0.66890       -1.49103
H          3.11979       -1.10447       -3.16415
H          4.57293        4.51326       -3.55406
H          5.67017        2.53530       -4.55212
H          4.79406        0.26770       -4.06349
H          3.59936        6.19079       -1.99801
H          2.58385        5.89406       -3.45459
H          1.85466        6.52714       -1.97920

--Link1--
%chk=JID_5132.chk
%mem=8GB
%nprocshared=4
# B3LYP/6-311++G(d,p) empiricaldispersion=gd3bj scf=xqc pop=npa geom=check

CID_146850317_JID_5132_Energie_neutraal

0 1

--Link1--
%chk=JID_5132.chk
%mem=8GB
%nprocshared=4
# B3LYP/6-311++G(d,p) empiricaldispersion=gd3bj scf=xqc pop=npa geom=check

CID_146850317_JID_5132_Energie_kation

1 2

--Link1--
%chk=JID_5132.chk
%mem=8GB
%nprocshared=4
# B3LYP/6-311++G(d,p) empiricaldispersion=gd3bj scf=xqc pop=npa geom=check

CID_146850317_JID_5132_Energie_anion

-1 2
