%chk=JID_8616.chk
%mem=8GB
%nprocshared=4
# opt freq B3LYP/6-31G(d) empiricaldispersion=gd3bj scf=xqc

CID_111118412_JID_8616_neutraal

0 1
C          0.95632       -0.01938        0.08784
O          0.32937        0.86600        1.00590
C          0.62252        0.69170        2.33453
C         -0.27659        1.23368        3.27223
C          0.00137        1.11458        4.64326
C          1.14887        0.44831        5.09801
C          2.04254       -0.06999        4.15657
C          1.78378        0.05306        2.78797
C          1.42505        0.32722        6.57767
N          1.90180        1.59416        7.12071
C          2.30570        1.48810        8.52758
C          3.81871        1.32489        8.79354
C          4.70844        2.51815        8.31959
C          5.78668        1.49222        7.92382
C          4.67684        0.42727        7.84226
O          3.97175        0.99815       10.20279
S         -1.78107        2.11108        2.83173
C         -2.61876        0.83826        1.85066
H          0.46032        0.09826       -0.88049
H          0.84325       -1.06498        0.39417
H          2.01081        0.24159       -0.04608
H         -0.68018        1.54731        5.37450
H          2.95394       -0.56813        4.48024
H          2.51978       -0.34384        2.09667
H          0.49744        0.02481        7.08002
H          2.14683       -0.48003        6.74732
H          2.64343        1.97823        6.54104
H          1.97283        2.40565        9.02851
H          1.75685        0.67273        9.01692
H          4.31508        3.09037        7.47259
H          5.01000        3.22275        9.10040
H          6.52465        1.30106        8.71111
H          6.31443        1.69815        6.98904
H          4.95145       -0.55475        8.23820
H          4.29695        0.29693        6.82507
H          4.92898        0.97378       10.37031
H         -2.18431        0.76014        0.85155
H         -2.57140       -0.13420        2.34847
H         -3.67041        1.11586        1.73763

--Link1--
%chk=JID_8616.chk
%mem=8GB
%nprocshared=4
# B3LYP/6-311++G(d,p) empiricaldispersion=gd3bj scf=xqc pop=npa geom=check

CID_111118412_JID_8616_Energie_neutraal

0 1

--Link1--
%chk=JID_8616.chk
%mem=8GB
%nprocshared=4
# B3LYP/6-311++G(d,p) empiricaldispersion=gd3bj scf=xqc pop=npa geom=check

CID_111118412_JID_8616_Energie_kation

1 2

--Link1--
%chk=JID_8616.chk
%mem=8GB
%nprocshared=4
# B3LYP/6-311++G(d,p) empiricaldispersion=gd3bj scf=xqc pop=npa geom=check

CID_111118412_JID_8616_Energie_anion

-1 2
