%chk=JID_7522.chk
%mem=8GB
%nprocshared=4
# opt freq B3LYP/6-31G(d) empiricaldispersion=gd3bj scf=xqc

CID_45095775_JID_7522_neutraal

0 1
C          1.06638       -0.07465       -0.00456
C          2.21113        0.92713       -0.01056
C          2.02992        1.98165       -1.07388
C          1.41705        3.20703       -0.75672
C          1.23448        4.18582       -1.75706
C          1.66756        3.90066       -3.05132
C          2.27437        2.68884       -3.39732
C          2.44569        1.73667       -2.38727
N          1.37703        4.99771       -3.82756
C          0.77970        5.96795       -3.07024
C          0.67426        5.50420       -1.77306
C          0.09302        6.25061       -0.61121
C          1.15780        6.96836        0.22629
N          1.82320        8.03589       -0.50533
C          1.41589        9.32869       -0.65441
O          1.97312       10.05739       -1.47237
C          0.29439        9.82126        0.21770
H          0.10751        0.42035        0.18315
H          1.22196       -0.82222        0.77969
H          0.99135       -0.59953       -0.96290
H          2.29015        1.40278        0.97461
H          3.16200        0.40459       -0.17148
H          1.08141        3.40325        0.25738
H          2.60196        2.48656       -4.41173
H          2.91265        0.78634       -2.63978
H          1.58089        5.07175       -4.81456
H          0.48612        6.91026       -3.51506
H         -0.64707        6.97279       -0.97729
H         -0.44989        5.54628        0.03075
H          0.69529        7.38486        1.12612
H          1.93901        6.26951        0.54482
H          2.53833        7.76179       -1.17053
H         -0.61695        9.25077        0.02376
H          0.57579        9.74160        1.27093
H          0.09613       10.87348       -0.00736

--Link1--
%chk=JID_7522.chk
%mem=8GB
%nprocshared=4
# B3LYP/6-311++G(d,p) empiricaldispersion=gd3bj scf=xqc pop=npa geom=check

CID_45095775_JID_7522_Energie_neutraal

0 1

--Link1--
%chk=JID_7522.chk
%mem=8GB
%nprocshared=4
# B3LYP/6-311++G(d,p) empiricaldispersion=gd3bj scf=xqc pop=npa geom=check

CID_45095775_JID_7522_Energie_kation

1 2

--Link1--
%chk=JID_7522.chk
%mem=8GB
%nprocshared=4
# B3LYP/6-311++G(d,p) empiricaldispersion=gd3bj scf=xqc pop=npa geom=check

CID_45095775_JID_7522_Energie_anion

-1 2
