%chk=JID_4976.chk
%mem=8GB
%nprocshared=4
# opt freq B3LYP/6-31G(d) empiricaldispersion=gd3bj scf=xqc

CID_152332108_JID_4976_neutraal

0 1
C          0.90797        0.01964       -0.03383
C          0.13964        1.31374        0.30524
C         -1.05389        1.59683       -0.64959
C         -2.00171        0.40222       -0.40229
C         -1.83238        0.13922        1.10230
C         -0.82212        1.23767        1.53137
C         -1.52990        2.62632        1.48643
C         -1.74253        2.83862       -0.02871
N         -2.76445        2.73605        2.27670
S         -0.07064        0.93577        3.10803
O          0.47037       -0.40419        3.14139
O          0.71356        2.08798        3.49389
O         -1.42136        0.95322        4.00444
C          1.19190        2.44111        0.31384
H          1.35298        0.09367       -1.03309
H          0.30093       -0.88768       -0.02725
H          1.72457       -0.14437        0.67818
H         -0.79651        1.73027       -1.70304
H         -1.70373       -0.47424       -0.98726
H         -3.04105        0.63055       -0.66059
H         -2.78800        0.19106        1.63233
H         -1.44704       -0.87133        1.27618
H         -0.86461        3.40777        1.86989
H         -2.79819        2.90545       -0.31509
H         -1.26235        3.76718       -0.35679
H         -3.06250        3.71858        2.26978
H         -3.52972        2.25562        1.79152
H         -1.97757        1.73990        3.76956
H          1.97497        2.23662        1.05218
H          1.67693        2.51267       -0.66703
H          0.79839        3.43474        0.53548

--Link1--
%chk=JID_4976.chk
%mem=8GB
%nprocshared=4
# B3LYP/6-311++G(d,p) empiricaldispersion=gd3bj scf=xqc pop=npa geom=check

CID_152332108_JID_4976_Energie_neutraal

0 1

--Link1--
%chk=JID_4976.chk
%mem=8GB
%nprocshared=4
# B3LYP/6-311++G(d,p) empiricaldispersion=gd3bj scf=xqc pop=npa geom=check

CID_152332108_JID_4976_Energie_kation

1 2

--Link1--
%chk=JID_4976.chk
%mem=8GB
%nprocshared=4
# B3LYP/6-311++G(d,p) empiricaldispersion=gd3bj scf=xqc pop=npa geom=check

CID_152332108_JID_4976_Energie_anion

-1 2
