%chk=JID_910.chk
%mem=8GB
%nprocshared=4
# opt freq B3LYP/6-31G(d) empiricaldispersion=gd3bj scf=xqc

CID_150755414_JID_910_neutraal

0 1
C         -0.18800       -1.35400       -0.00200
N         -1.03717       -0.35969        0.04193
C         -0.22590        0.74213        0.02906
N          1.08608        0.48810       -0.02102
N          1.09901       -0.84376       -0.04612
N          2.29277       -1.59257       -0.10209
N         -0.73621        2.03778        0.06848
N          0.12041        2.93334        0.02301
N          0.87738        3.78731       -0.01718
N         -0.45984       -2.67594       -0.01128
H          3.02214       -0.98000       -0.46118
H          2.58325       -1.81594        0.84666
H         -1.41082       -2.94282       -0.24652
H          0.24972       -3.31034       -0.36934

--Link1--
%chk=JID_910.chk
%mem=8GB
%nprocshared=4
# B3LYP/6-311++G(d,p) empiricaldispersion=gd3bj scf=xqc pop=npa geom=check

CID_150755414_JID_910_Energie_neutraal

0 1

--Link1--
%chk=JID_910.chk
%mem=8GB
%nprocshared=4
# B3LYP/6-311++G(d,p) empiricaldispersion=gd3bj scf=xqc pop=npa geom=check

CID_150755414_JID_910_Energie_kation

1 2

--Link1--
%chk=JID_910.chk
%mem=8GB
%nprocshared=4
# B3LYP/6-311++G(d,p) empiricaldispersion=gd3bj scf=xqc pop=npa geom=check

CID_150755414_JID_910_Energie_anion

-1 2
