%chk=JID_1522.chk
%mem=8GB
%nprocshared=4
# opt=(cartesian,calcfc) freq B3LYP/6-31G(d) empiricaldispersion=gd3bj scf=xqc

CID_63731457_JID_1522_neutraal

0 1
6	-1.933620	 2.324831	 0.280434
6	-2.644454	 0.994548	 0.551455
6	-2.658022	 0.033513	 -0.647844
6	-1.270407	 -0.487575	 -1.046583
6	-0.684408	 -1.398027	 0.031329
8	-1.400055	 -2.017481	 0.812549
7	0.678577	 -1.545393	 0.073285
6	1.693346	 -0.808639	 -0.660633
6	2.093356	 0.536755	 -0.026522
6	2.562318	 0.373963	 1.423283
7	3.075626	 1.162528	 -0.921281
1	-0.880253	 2.178239	 0.018353
1	-1.959636	 2.978656	 1.157308
1	-2.404875	 2.863796	 -0.552405
1	-2.180287	 0.485681	 1.401914
1	-3.678540	 1.199853	 0.848394
1	-3.285786	 -0.830457	 -0.404247
1	-3.108403	 0.532692	 -1.515411
1	-1.351862	 -1.088494	 -1.963043
1	-0.593328	 0.335874	 -1.286919
1	0.980401	 -2.153443	 0.824418
1	2.581981	 -1.449422	 -0.727515
1	1.362857	 -0.631519	 -1.686106
1	1.205118	 1.181586	 -0.033670
1	3.442197	 -0.280415	 1.474254
1	2.842429	 1.343869	 1.849445
1	1.778524	 -0.057565	 2.055323
1	3.254443	 2.119501	 -0.618493
1	3.967379	 0.675265	 -0.835532

--Link1--
%chk=JID_1522.chk
%mem=8GB
%nprocshared=4
# B3LYP/6-311++G(d,p) empiricaldispersion=gd3bj scf=xqc pop=npa geom=check

CID_63731457_JID_1522_Energie_neutraal

0 1

--Link1--
%chk=JID_1522.chk
%mem=8GB
%nprocshared=4
# B3LYP/6-311++G(d,p) empiricaldispersion=gd3bj scf=xqc pop=npa geom=check

CID_63731457_JID_1522_Energie_kation

1 2

--Link1--
%chk=JID_1522.chk
%mem=8GB
%nprocshared=4
# B3LYP/6-311++G(d,p) empiricaldispersion=gd3bj scf=xqc pop=npa geom=check

CID_63731457_JID_1522_Energie_anion

-1 2
