%chk=JID_2714.chk
%mem=8GB
%nprocshared=4
# opt freq B3LYP/6-31G(d) empiricaldispersion=gd3bj scf=xqc

CID_101913363_JID_2714_neutraal

0 1
C          0.96484        0.07587       -0.05485
C          0.25350        1.20409        0.64406
C         -0.57064        2.03102       -0.02027
C          0.46177        1.34078        2.08772
C          1.71020        1.46344        2.58389
C          2.11244        1.63107        4.03575
C          2.78611        0.35839        4.57434
C          4.20433        0.15389        4.04204
C          5.07762        1.37988        4.28806
C          4.45039        2.64715        3.71655
C          3.02500        2.85638        4.22931
C         -0.78858        1.29095        2.92902
H          0.62266       -0.04033       -1.08924
H          0.77718       -0.87390        0.45791
H          2.04537        0.24868       -0.08575
H         -1.08868        2.84519        0.47699
H         -0.73850        1.92484       -1.08732
H          2.53930        1.47091        1.87761
H          1.21800        1.81433        4.64100
H          2.83169        0.42336        5.66951
H          2.17762       -0.52456        4.34267
H          4.17396       -0.06760        2.96867
H          4.65427       -0.71843        4.52992
H          6.06628        1.22429        3.84172
H          5.23188        1.50563        5.36693
H          4.45221        2.59585        2.62164
H          5.06525        3.51301        3.98830
H          2.58818        3.73856        3.74506
H          3.07495        3.08598        5.30206
H         -1.26311        2.27675        2.97134
H         -1.51068        0.57785        2.51415
H         -0.59383        0.95878        3.95240

--Link1--
%chk=JID_2714.chk
%mem=8GB
%nprocshared=4
# B3LYP/6-311++G(d,p) empiricaldispersion=gd3bj scf=xqc pop=npa geom=check

CID_101913363_JID_2714_Energie_neutraal

0 1

--Link1--
%chk=JID_2714.chk
%mem=8GB
%nprocshared=4
# B3LYP/6-311++G(d,p) empiricaldispersion=gd3bj scf=xqc pop=npa geom=check

CID_101913363_JID_2714_Energie_kation

1 2

--Link1--
%chk=JID_2714.chk
%mem=8GB
%nprocshared=4
# B3LYP/6-311++G(d,p) empiricaldispersion=gd3bj scf=xqc pop=npa geom=check

CID_101913363_JID_2714_Energie_anion

-1 2
