%chk=JID_8963.chk
%mem=8GB
%nprocshared=4
# opt freq B3LYP/6-31G(d) empiricaldispersion=gd3bj scf=xqc

CID_130366445_JID_8963_neutraal

0 1
C          0.98059       -0.06578        0.07278
C          0.40097        1.25228       -0.47000
C          0.81409        1.56131       -1.90928
C          0.94708        0.56725       -2.89202
C          1.30045        0.94881       -4.17241
C          1.53795        2.27067       -4.51044
C          1.96588        2.34277       -5.92435
C          1.53154        0.94730       -6.37360
O          1.46439        0.07686       -5.21881
C          1.41886        3.27360       -3.57048
C          1.04101        2.91390       -2.27255
N         -1.06164        1.41919       -0.31495
C         -1.42693        1.95987        0.99763
C         -2.90715        2.34498        1.03650
C         -3.81488        1.18919        0.63042
C         -3.34723        0.54249       -0.66959
C         -1.84984        0.22945       -0.65322
O         -3.88456        0.22042        1.67750
H          0.60871       -0.94802       -0.45747
H          0.74025       -0.18769        1.13450
H          2.07301       -0.06889       -0.01892
H          0.89610        2.03230        0.12749
H          0.76556       -0.47961       -2.68163
H          1.47119        3.12953       -6.49923
H          3.05284        2.45753       -5.98537
H          2.22748        0.52508       -7.10583
H          0.53392        0.97273       -6.83115
H          1.60837        4.31130       -3.82312
H          0.92087        3.69753       -1.52623
H         -0.84931        2.86929        1.20482
H         -1.19781        1.24417        1.79630
H         -3.07354        3.18829        0.35365
H         -3.15925        2.68603        2.04730
H         -4.83601        1.56306        0.49766
H         -3.90092       -0.38724       -0.84642
H         -3.56065        1.21858       -1.50705
H         -1.58002       -0.14346       -1.64715
H         -1.66165       -0.58362        0.05876
H         -2.99577       -0.14098        1.82622

--Link1--
%chk=JID_8963.chk
%mem=8GB
%nprocshared=4
# B3LYP/6-311++G(d,p) empiricaldispersion=gd3bj scf=xqc pop=npa geom=check

CID_130366445_JID_8963_Energie_neutraal

0 1

--Link1--
%chk=JID_8963.chk
%mem=8GB
%nprocshared=4
# B3LYP/6-311++G(d,p) empiricaldispersion=gd3bj scf=xqc pop=npa geom=check

CID_130366445_JID_8963_Energie_kation

1 2

--Link1--
%chk=JID_8963.chk
%mem=8GB
%nprocshared=4
# B3LYP/6-311++G(d,p) empiricaldispersion=gd3bj scf=xqc pop=npa geom=check

CID_130366445_JID_8963_Energie_anion

-1 2
