%chk=JID_9382.chk
%mem=8GB
%nprocshared=4
# opt freq B3LYP/6-31G(d) empiricaldispersion=gd3bj scf=xqc

CID_62294238_JID_9382_neutraal

0 1
C          0.92489        0.02216       -0.06219
C          0.45382        1.39150        0.42163
N          0.80386        2.47354       -0.52375
C         -0.14063        3.53908       -0.58730
C         -1.03794        3.86826        0.43905
C         -1.93474        4.93579        0.30380
C         -1.95968        5.70155       -0.86486
C         -1.05065        5.40460       -1.88280
C         -0.15619        4.33869       -1.74306
C         -2.88883        6.87063       -0.99429
C          2.18524        2.81643       -0.39699
C          3.11968        2.14527       -1.18533
C          4.46470        2.49132       -1.10194
C          4.84720        3.52187       -0.25372
C          3.86713        4.17511        0.48866
N          2.55962        3.81412        0.43761
C          4.23397        5.33972        1.39132
N          4.70715        6.51569        0.64446
C          4.99902        7.62235        1.54163
H          0.63047       -0.15301       -1.10211
H          0.48101       -0.76544        0.55579
H          2.01066       -0.08425        0.01266
H         -0.63712        1.29601        0.50170
H          0.83409        1.59371        1.43196
H         -1.03107        3.33052        1.38177
H         -2.60331        5.17086        1.12848
H         -1.02279        6.00272       -2.79002
H          0.54419        4.12904       -2.54788
H         -2.37973        7.78957       -0.68776
H         -3.23110        6.98095       -2.02861
H         -3.77870        6.73653       -0.37031
H          2.79735        1.37215       -1.87410
H          5.20179        1.97522       -1.70943
H          5.88772        3.81984       -0.18786
H          3.34796        5.61138        1.97870
H          5.00189        4.99966        2.09733
H          5.53991        6.27207        0.11452
H          5.79017        7.36533        2.25328
H          5.33852        8.48414        0.95841
H          4.10610        7.93237        2.09404

--Link1--
%chk=JID_9382.chk
%mem=8GB
%nprocshared=4
# B3LYP/6-311++G(d,p) empiricaldispersion=gd3bj scf=xqc pop=npa geom=check

CID_62294238_JID_9382_Energie_neutraal

0 1

--Link1--
%chk=JID_9382.chk
%mem=8GB
%nprocshared=4
# B3LYP/6-311++G(d,p) empiricaldispersion=gd3bj scf=xqc pop=npa geom=check

CID_62294238_JID_9382_Energie_kation

1 2

--Link1--
%chk=JID_9382.chk
%mem=8GB
%nprocshared=4
# B3LYP/6-311++G(d,p) empiricaldispersion=gd3bj scf=xqc pop=npa geom=check

CID_62294238_JID_9382_Energie_anion

-1 2
