%chk=JID_3429.chk
%mem=8GB
%nprocshared=4
# opt freq B3LYP/6-31G(d) empiricaldispersion=gd3bj scf=xqc

CID_142039384_JID_3429_neutraal

0 1
C          1.06746       -0.05371        0.05064
C          0.95920        1.42073       -0.26613
C          3.58144       -2.97897        1.42564
C          2.35754       -3.44909        0.67177
C          1.20475       -3.61855        1.35222
C         -0.08122       -4.04634        0.84614
C         -1.16977       -4.13559        1.62053
C          2.49951       -3.68183       -0.76237
C          3.60450       -3.48263       -1.49392
C         -2.79156       -0.31210        0.23195
C         -2.44501        0.32312        1.53748
O         -2.32264        1.51734        1.75153
O         -2.31267       -0.57335        2.53191
H          0.37109       -0.63209       -0.56332
H          0.83785       -0.23945        1.10395
H          2.08175       -0.40949       -0.15062
H          1.19038        1.60500       -1.31949
H         -0.05228        1.78582       -0.06771
H          1.65955        1.99702        0.34580
H          3.38483       -2.84240        2.49500
H          3.92832       -2.01425        1.03929
H          4.39363       -3.70921        1.34081
H          1.21373       -3.40622        2.42208
H         -0.17852       -4.30775       -0.20239
H         -2.11771       -4.46011        1.20303
H         -1.15378       -3.88552        2.67657
H          1.62841       -4.04799       -1.29905
H          3.59576       -3.68692       -2.56053
H          4.53512       -3.11532       -1.07686
H         -3.84906       -0.58518        0.22414
H         -2.16918       -1.19552        0.06768
H         -2.59177        0.39576       -0.57753
H         -2.09898       -0.02464        3.31515

--Link1--
%chk=JID_3429.chk
%mem=8GB
%nprocshared=4
# B3LYP/6-311++G(d,p) empiricaldispersion=gd3bj scf=xqc pop=npa geom=check

CID_142039384_JID_3429_Energie_neutraal

0 1

--Link1--
%chk=JID_3429.chk
%mem=8GB
%nprocshared=4
# B3LYP/6-311++G(d,p) empiricaldispersion=gd3bj scf=xqc pop=npa geom=check

CID_142039384_JID_3429_Energie_kation

1 2

--Link1--
%chk=JID_3429.chk
%mem=8GB
%nprocshared=4
# B3LYP/6-311++G(d,p) empiricaldispersion=gd3bj scf=xqc pop=npa geom=check

CID_142039384_JID_3429_Energie_anion

-1 2
