%chk=JID_10109.chk
%mem=8GB
%nprocshared=4
# opt freq B3LYP/6-31G(d) empiricaldispersion=gd3bj scf=xqc

CID_105682817_JID_10109_neutraal

0 1
C          0.97852       -0.09762        0.00292
C         -0.44658        0.30432       -0.38787
C         -0.66532        0.02869       -1.87719
C         -1.47610       -0.45979        0.46662
O         -2.33633        0.42311        1.19390
C         -1.69803        1.11571        2.26602
C         -2.15263        0.58547        3.62289
C         -1.72708       -0.85131        3.90977
N         -0.27069       -1.04300        3.79831
C          0.36683       -0.98586        5.05049
C          0.91596        0.17965        5.60227
C          1.01756        1.53974        5.15556
C          1.66190        2.35155        6.06337
S          2.16411        1.48132        7.44713
C          1.53396        0.02156        6.82998
N          1.66742       -1.12099        7.51620
C          1.14972       -2.18289        6.88437
N          0.52306       -2.15750        5.69593
N          1.26145       -3.45263        7.49152
N          1.37138       -3.52318        8.90434
H          1.17634        0.11890        1.05731
H          1.71347        0.45477       -0.59233
H          1.14857       -1.16751       -0.16021
H         -0.55334        1.38496       -0.23390
H         -0.55069       -1.03624       -2.10727
H         -1.67004        0.33762       -2.18452
H          0.05575        0.58497       -2.48564
H         -2.13439       -1.06016       -0.17111
H         -0.99856       -1.16069        1.15753
H         -0.60788        1.10812        2.17953
H         -2.01139        2.16267        2.18642
H         -1.77898        1.24837        4.40991
H         -3.24807        0.62502        3.66858
H         -2.10268       -1.16129        4.89407
H         -2.21275       -1.51626        3.18533
H         -0.13130       -2.02395        3.54119
H          0.63871        1.89743        4.20701
H          1.86874        3.40987        5.97928
H          0.57622       -4.05955        7.04106
H          2.07371       -4.22489        9.15026
H          1.76653       -2.63464        9.24161

--Link1--
%chk=JID_10109.chk
%mem=8GB
%nprocshared=4
# B3LYP/6-311++G(d,p) empiricaldispersion=gd3bj scf=xqc pop=npa geom=check

CID_105682817_JID_10109_Energie_neutraal

0 1

--Link1--
%chk=JID_10109.chk
%mem=8GB
%nprocshared=4
# B3LYP/6-311++G(d,p) empiricaldispersion=gd3bj scf=xqc pop=npa geom=check

CID_105682817_JID_10109_Energie_kation

1 2

--Link1--
%chk=JID_10109.chk
%mem=8GB
%nprocshared=4
# B3LYP/6-311++G(d,p) empiricaldispersion=gd3bj scf=xqc pop=npa geom=check

CID_105682817_JID_10109_Energie_anion

-1 2
