%chk=JID_5778.chk
%mem=8GB
%nprocshared=4
# opt freq B3LYP/6-31G(d) empiricaldispersion=gd3bj scf=xqc

CID_107892927_JID_5778_neutraal

0 1
C          0.95154        0.06282       -0.06088
C          0.21436       -1.26575       -0.12638
C          0.80945       -2.33970        0.79186
C          0.80691       -2.03544        2.30123
C         -0.64006       -1.82579        2.78934
C          1.50519       -3.16369        3.11658
C          3.06024       -3.30168        3.06146
C          3.83374       -1.99199        3.28717
C          4.36780       -1.34214        2.01727
C          5.19880       -2.30057        1.14660
C          4.33860       -3.51511        0.76197
C          3.61176       -4.19033        1.92720
C          6.47407       -2.75786        1.87911
C          5.62539       -1.56070       -0.13618
O          1.17384       -2.99112        4.50850
H          0.86172        0.52536        0.92604
H          0.53128        0.76035       -0.79263
H          2.01355       -0.06520       -0.29144
H         -0.84797       -1.11214        0.08794
H          0.26397       -1.63493       -1.15838
H          0.27284       -3.28014        0.61235
H          1.83111       -2.50290        0.46482
H          1.33396       -1.09479        2.49064
H         -1.24119       -2.72856        2.63712
H         -0.67535       -1.56855        3.85276
H         -1.12552       -0.99853        2.26361
H          1.05805       -4.12597        2.83933
H          3.27748       -3.88781        3.97064
H          4.68349       -2.20381        3.94911
H          3.22859       -1.26339        3.83768
H          4.97323       -0.47014        2.29648
H          3.52589       -0.95083        1.43551
H          3.60971       -3.21945        0.00279
H          4.96178       -4.26779        0.25965
H          4.33659       -4.87791        2.38651
H          2.82386       -4.84190        1.53050
H          6.25296       -3.35653        2.76781
H          7.10195       -3.37348        1.22463
H          7.07318       -1.89734        2.19768
H          6.19948       -2.21705       -0.79986
H          4.75456       -1.20161       -0.69663
H          6.25018       -0.69136        0.09786
H          1.47832       -2.10996        4.78316

--Link1--
%chk=JID_5778.chk
%mem=8GB
%nprocshared=4
# B3LYP/6-311++G(d,p) empiricaldispersion=gd3bj scf=xqc pop=npa geom=check

CID_107892927_JID_5778_Energie_neutraal

0 1

--Link1--
%chk=JID_5778.chk
%mem=8GB
%nprocshared=4
# B3LYP/6-311++G(d,p) empiricaldispersion=gd3bj scf=xqc pop=npa geom=check

CID_107892927_JID_5778_Energie_kation

1 2

--Link1--
%chk=JID_5778.chk
%mem=8GB
%nprocshared=4
# B3LYP/6-311++G(d,p) empiricaldispersion=gd3bj scf=xqc pop=npa geom=check

CID_107892927_JID_5778_Energie_anion

-1 2
