%chk=JID_8510.chk
%mem=8GB
%nprocshared=4
# opt freq B3LYP/6-31G(d) empiricaldispersion=gd3bj scf=xqc

CID_117368131_JID_8510_neutraal

0 1
C          1.08325       -0.05470        0.00881
C          0.56421        1.29922        0.33799
C         -0.71043        1.57162        0.66262
N         -0.81171        2.88058        1.02433
C          0.44821        3.49670        0.95169
O          0.65023        4.67068        1.21437
N          1.33485        2.45979        0.49444
C          2.72509        2.67752        0.26843
C          3.41653        3.67054        0.97021
C          4.78264        3.86925        0.77392
C          5.48037        3.08599       -0.14280
C          4.82790        2.09694       -0.89815
C          3.44817        1.91622       -0.66699
C          5.61556        1.26438       -1.93188
C          6.29312        2.22173       -2.94304
C          6.71056        0.45932       -1.19741
C          4.75198        0.28190       -2.78210
O          4.17446       -0.77911       -2.02355
H          1.25912       -0.15896       -1.06543
H          0.35918       -0.82876        0.28847
H          2.00513       -0.27401        0.55604
H         -1.56157        0.90790        0.68685
H         -1.64091        3.37098        1.32191
H          2.91790        4.28838        1.71214
H          5.30256        4.63582        1.34290
H          6.54561        3.26920       -0.26283
H          2.91046        1.19538       -1.26801
H          7.01798        2.89016       -2.46600
H          6.83913        1.66232       -3.71184
H          5.55046        2.84911       -3.45017
H          6.28698       -0.16109       -0.39922
H          7.24504       -0.20051       -1.89057
H          7.45926        1.11193       -0.73425
H          3.93815        0.81310       -3.28922
H          5.35871       -0.18446       -3.56785
H          4.89826       -1.33753       -1.69330

--Link1--
%chk=JID_8510.chk
%mem=8GB
%nprocshared=4
# B3LYP/6-311++G(d,p) empiricaldispersion=gd3bj scf=xqc pop=npa geom=check

CID_117368131_JID_8510_Energie_neutraal

0 1

--Link1--
%chk=JID_8510.chk
%mem=8GB
%nprocshared=4
# B3LYP/6-311++G(d,p) empiricaldispersion=gd3bj scf=xqc pop=npa geom=check

CID_117368131_JID_8510_Energie_kation

1 2

--Link1--
%chk=JID_8510.chk
%mem=8GB
%nprocshared=4
# B3LYP/6-311++G(d,p) empiricaldispersion=gd3bj scf=xqc pop=npa geom=check

CID_117368131_JID_8510_Energie_anion

-1 2
