%chk=JID_5856.chk
%mem=8GB
%nprocshared=4
# opt freq B3LYP/6-31G(d) empiricaldispersion=gd3bj scf=xqc

CID_151311854_JID_5856_neutraal

0 1
C          2.53000       -0.71200       -0.31700
C          2.50230        0.57148        0.49876
C          1.29907        1.42656        0.10500
C         -0.00159        0.65750        0.03340
C          0.00614       -0.75069       -0.06500
C          1.28920       -1.54764       -0.02099
C         -1.20871       -1.45249       -0.14724
C         -2.42686       -0.77713       -0.16472
C         -2.44792        0.61158       -0.09312
C         -1.24512        1.32666        0.00966
C         -1.33139        2.81515        0.05477
S         -1.86063        3.58420        1.46642
N         -1.05213        3.40961       -1.15621
N         -0.22767        4.33730       -1.07757
N          0.54227        5.17670       -1.02593
H          2.57289       -0.46898       -1.38626
H          3.42973       -1.29154       -0.08215
H          2.45452        0.32836        1.56785
H          3.42508        1.14071        0.33982
H          1.21842        2.24477        0.82910
H          1.48661        1.86709       -0.88201
H          1.24106       -2.37166       -0.74302
H          1.37918       -1.98923        0.97955
H         -1.20749       -2.54004       -0.20054
H         -3.35751       -1.33438       -0.23626
H         -3.40207        1.13313       -0.12056

--Link1--
%chk=JID_5856.chk
%mem=8GB
%nprocshared=4
# B3LYP/6-311++G(d,p) empiricaldispersion=gd3bj scf=xqc pop=npa geom=check

CID_151311854_JID_5856_Energie_neutraal

0 1

--Link1--
%chk=JID_5856.chk
%mem=8GB
%nprocshared=4
# B3LYP/6-311++G(d,p) empiricaldispersion=gd3bj scf=xqc pop=npa geom=check

CID_151311854_JID_5856_Energie_kation

1 2

--Link1--
%chk=JID_5856.chk
%mem=8GB
%nprocshared=4
# B3LYP/6-311++G(d,p) empiricaldispersion=gd3bj scf=xqc pop=npa geom=check

CID_151311854_JID_5856_Energie_anion

-1 2
