%chk=JID_7826.chk
%mem=8GB
%nprocshared=4
# opt freq B3LYP/6-31G(d) empiricaldispersion=gd3bj scf=xqc

CID_84627658_JID_7826_neutraal

0 1
C          1.00447       -0.09136       -0.04041
C          0.40172       -0.53107       -1.39269
C          0.85860       -1.98666       -1.64083
C         -1.13786       -0.54665       -1.28170
C          0.82580        0.45289       -2.50110
C          1.52134        0.02902       -3.65484
C          1.88341        0.96227       -4.64729
C          1.54410        2.29477       -4.46461
C          0.86156        2.77262       -3.35388
C          0.51023        1.82505       -2.38170
O          1.96975        3.04927       -5.51651
C          2.59269        2.20162       -6.39723
C          2.55481        0.91799       -5.89072
O          3.06910       -0.17597       -6.48626
C          3.15226        2.70165       -7.61834
O          3.72645        2.04070       -8.47399
O          2.99076        4.03392       -7.76645
H          0.74963       -0.80118        0.75533
H          0.63779        0.89005        0.27915
H          2.09787       -0.03215       -0.09708
H          0.54238       -2.64490       -0.82263
H          0.42887       -2.39372       -2.56350
H          1.95021       -2.05997       -1.71045
H         -1.54248        0.43216       -1.00158
H         -1.59916       -0.83247       -2.23451
H         -1.47218       -1.26212       -0.52134
H          1.79502       -1.00798       -3.81801
H          0.61377        3.82176       -3.24964
H         -0.03039        2.18600       -1.50776
H          3.48188        0.05634       -7.34185
H          3.41120        4.23566       -8.62570

--Link1--
%chk=JID_7826.chk
%mem=8GB
%nprocshared=4
# B3LYP/6-311++G(d,p) empiricaldispersion=gd3bj scf=xqc pop=npa geom=check

CID_84627658_JID_7826_Energie_neutraal

0 1

--Link1--
%chk=JID_7826.chk
%mem=8GB
%nprocshared=4
# B3LYP/6-311++G(d,p) empiricaldispersion=gd3bj scf=xqc pop=npa geom=check

CID_84627658_JID_7826_Energie_kation

1 2

--Link1--
%chk=JID_7826.chk
%mem=8GB
%nprocshared=4
# B3LYP/6-311++G(d,p) empiricaldispersion=gd3bj scf=xqc pop=npa geom=check

CID_84627658_JID_7826_Energie_anion

-1 2
