%chk=JID_2337.chk
%mem=8GB
%nprocshared=4
# opt freq B3LYP/6-31G(d) empiricaldispersion=gd3bj scf=xqc

CID_91068790_JID_2337_neutraal

0 1
C          1.05269        0.08304       -0.01814
C          0.16076       -0.89293        0.75458
C         -1.33409       -0.53783        0.68838
C         -2.07734       -1.02090       -0.55946
C         -1.75449       -2.50095       -0.85533
C         -0.24967       -2.77327       -0.85413
N          0.41318       -2.28272        0.35115
C          1.48603       -3.00178        0.83017
O          1.88143       -4.08622        0.43560
O          2.13235       -2.39991        1.84415
O         -2.31282       -2.85414       -2.12681
N         -1.85585       -0.18378       -1.75510
H          0.81922        1.11989        0.24423
H          0.95897       -0.03008       -1.10057
H          2.10755       -0.08989        0.22291
H          0.44574       -0.78993        1.80954
H         -1.81905       -1.01830        1.55048
H         -1.47967        0.53999        0.83302
H         -3.15515       -0.95109       -0.36434
H         -2.23518       -3.13123       -0.09757
H          0.23415       -2.30405       -1.71980
H         -0.08130       -3.85020       -0.97490
H          2.83750       -3.04587        2.05449
H         -2.38731       -2.00499       -2.61258
H         -2.09733        0.78469       -1.53827
H         -0.87143       -0.17417       -2.01612

--Link1--
%chk=JID_2337.chk
%mem=8GB
%nprocshared=4
# B3LYP/6-311++G(d,p) empiricaldispersion=gd3bj scf=xqc pop=npa geom=check

CID_91068790_JID_2337_Energie_neutraal

0 1

--Link1--
%chk=JID_2337.chk
%mem=8GB
%nprocshared=4
# B3LYP/6-311++G(d,p) empiricaldispersion=gd3bj scf=xqc pop=npa geom=check

CID_91068790_JID_2337_Energie_kation

1 2

--Link1--
%chk=JID_2337.chk
%mem=8GB
%nprocshared=4
# B3LYP/6-311++G(d,p) empiricaldispersion=gd3bj scf=xqc pop=npa geom=check

CID_91068790_JID_2337_Energie_anion

-1 2
