%chk=JID_308.chk
%mem=8GB
%nprocshared=4
# opt freq B3LYP/6-31G(d) empiricaldispersion=gd3bj scf=xqc

CID_69782589_JID_308_neutraal

0 1
C          1.03303       -0.08056        0.04919
C          0.84487       -1.55048       -0.28881
C          1.05981       -2.49331        0.89946
C          0.20012       -2.22588        2.14269
C         -1.31674       -2.32815        1.92697
C         -1.99632       -3.65355        2.31689
C         -1.42066       -4.89360        1.63151
S         -2.07319       -6.26846        2.61261
C         -2.56858       -5.20458        3.98495
N         -1.94935       -3.89615        3.77504
H          0.25130        0.27792        0.72535
H          0.98277        0.52359       -0.86245
H          2.00652        0.09428        0.51790
H         -0.14878       -1.69992       -0.72375
H          1.56306       -1.82141       -1.07258
H          0.90603       -3.51989        0.55216
H          2.11351       -2.43147        1.20096
H          0.52427       -2.90127        2.94182
H          0.42861       -1.21700        2.50767
H         -1.78799       -1.53374        2.52280
H         -1.57607       -2.09886        0.88838
H         -3.05434       -3.54777        2.03357
H         -1.73468       -4.97128        0.58720
H         -0.33162       -4.94474        1.68904
H         -2.25403       -5.63625        4.93952
H         -3.65929       -5.11191        3.99662
H         -0.97527       -3.97935        4.06259

--Link1--
%chk=JID_308.chk
%mem=8GB
%nprocshared=4
# B3LYP/6-311++G(d,p) empiricaldispersion=gd3bj scf=xqc pop=npa geom=check

CID_69782589_JID_308_Energie_neutraal

0 1

--Link1--
%chk=JID_308.chk
%mem=8GB
%nprocshared=4
# B3LYP/6-311++G(d,p) empiricaldispersion=gd3bj scf=xqc pop=npa geom=check

CID_69782589_JID_308_Energie_kation

1 2

--Link1--
%chk=JID_308.chk
%mem=8GB
%nprocshared=4
# B3LYP/6-311++G(d,p) empiricaldispersion=gd3bj scf=xqc pop=npa geom=check

CID_69782589_JID_308_Energie_anion

-1 2
