%chk=JID_6208.chk
%mem=8GB
%nprocshared=4
# opt freq B3LYP/6-31G(d) empiricaldispersion=gd3bj scf=xqc

CID_80707101_JID_6208_neutraal

0 1
C          0.94893        0.05573        0.06546
N          0.59412       -0.11085       -1.33662
C         -0.32784       -1.20771       -1.65973
C         -1.75576       -0.74130       -1.41116
C         -2.83764       -1.81941       -1.69873
C         -3.64033       -1.22720       -0.52433
C         -2.29748       -0.72995        0.04623
C          0.78083        1.00603       -2.15743
O          1.09698        2.11588       -1.72517
C          0.55581        0.91214       -3.61468
C         -0.15505        1.92251       -4.26224
C         -0.35501        1.80133       -5.62512
N          0.13347        0.77927       -6.36808
C          0.87136       -0.14921       -5.72232
C          1.11732       -0.12448       -4.36084
O         -0.64536        3.02393       -3.62011
H          0.13065        0.55357        0.59162
H          1.84782        0.67343        0.15819
H          1.14989       -0.92040        0.51531
H         -0.22214       -1.50064       -2.70479
H         -0.06739       -2.08235       -1.05321
H         -1.98568        0.19322       -1.94433
H         -3.31852       -1.75863       -2.67864
H         -2.51043       -2.85197       -1.52726
H         -4.18322       -1.94693        0.09301
H         -4.32152       -0.42018       -0.81776
H         -1.81340       -1.44882        0.71763
H         -2.33161        0.24776        0.53382
H         -0.91526        2.55175       -6.17511
H          1.27564       -0.93721       -6.35210
H          1.73452       -0.88706       -3.89974
H         -0.16112        3.10791       -2.76830

--Link1--
%chk=JID_6208.chk
%mem=8GB
%nprocshared=4
# B3LYP/6-311++G(d,p) empiricaldispersion=gd3bj scf=xqc pop=npa geom=check

CID_80707101_JID_6208_Energie_neutraal

0 1

--Link1--
%chk=JID_6208.chk
%mem=8GB
%nprocshared=4
# B3LYP/6-311++G(d,p) empiricaldispersion=gd3bj scf=xqc pop=npa geom=check

CID_80707101_JID_6208_Energie_kation

1 2

--Link1--
%chk=JID_6208.chk
%mem=8GB
%nprocshared=4
# B3LYP/6-311++G(d,p) empiricaldispersion=gd3bj scf=xqc pop=npa geom=check

CID_80707101_JID_6208_Energie_anion

-1 2
