%chk=JID_9907.chk
%mem=8GB
%nprocshared=4
# opt freq B3LYP/6-31G(d) empiricaldispersion=gd3bj scf=xqc

CID_123213170_JID_9907_neutraal

0 1
C          1.34400       -0.22500        0.03600
C          0.93245        1.09376       -0.14138
C         -0.41465        1.37827       -0.36254
C         -1.36260        0.34382       -0.41369
C         -0.93949       -0.97730       -0.21705
C          0.40973       -1.25942        0.00209
C         -2.82036        0.66613       -0.64523
N         -3.43573        1.13372        0.60190
C         -4.06361        2.37255        0.50085
C         -5.23186        2.64130       -0.20710
C         -5.78721        3.92598       -0.23935
C         -5.13274        4.93008        0.46218
C         -3.98052        4.60632        1.16233
N         -3.44583        3.35628        1.19314
C         -5.64914        6.30543        0.46821
O         -5.07075        7.20127        1.06828
N         -5.93688        1.58744       -0.88242
O         -6.96417        1.16157       -0.33961
O         -5.51900        1.26054       -2.00154
H          2.39387       -0.44760        0.20871
H          1.65982        1.90052       -0.10405
H         -0.72565        2.41360       -0.48958
H         -1.65784       -1.79427       -0.23247
H          0.73258       -2.28695        0.14960
H         -2.88114        1.40164       -1.45842
H         -3.35066       -0.23050       -0.98685
H         -2.69801        1.29202        1.29434
H         -6.70360        4.12147       -0.78911
H         -3.43507        5.35322        1.73611
H         -6.57757        6.49281       -0.09702

--Link1--
%chk=JID_9907.chk
%mem=8GB
%nprocshared=4
# B3LYP/6-311++G(d,p) empiricaldispersion=gd3bj scf=xqc pop=npa geom=check

CID_123213170_JID_9907_Energie_neutraal

0 1

--Link1--
%chk=JID_9907.chk
%mem=8GB
%nprocshared=4
# B3LYP/6-311++G(d,p) empiricaldispersion=gd3bj scf=xqc pop=npa geom=check

CID_123213170_JID_9907_Energie_kation

1 2

--Link1--
%chk=JID_9907.chk
%mem=8GB
%nprocshared=4
# B3LYP/6-311++G(d,p) empiricaldispersion=gd3bj scf=xqc pop=npa geom=check

CID_123213170_JID_9907_Energie_anion

-1 2
