%chk=JID_8016.chk
%mem=8GB
%nprocshared=4
# opt freq B3LYP/6-31G(d) empiricaldispersion=gd3bj scf=xqc

CID_62845283_JID_8016_neutraal

0 1
C          1.00948        0.09955        0.00069
C          0.76466       -1.38839       -0.11622
C          1.10040       -2.11319        1.18091
C          0.50280       -1.44253        2.41663
C         -1.01720       -1.44253        2.41663
N         -2.27816       -1.44253        2.41663
C          1.02236       -2.09699        3.69282
O          1.77570       -1.46609        4.44206
N          0.76993       -3.39275        4.01974
C         -0.20808       -4.34006        3.50395
C         -1.40403       -4.45235        4.47476
C         -2.28328       -5.66676        4.14489
C         -1.50475       -6.98345        4.28730
C         -0.14769       -6.86106        3.66331
C          0.47319       -5.67179        3.32224
C          1.76424       -5.91585        2.75178
C          2.07165       -7.25831        2.70701
S          0.81132       -8.22804        3.33533
H          0.25229        0.60031        0.61112
H          0.95836        0.55778       -0.99326
H          2.00127        0.31621        0.41070
H         -0.28007       -1.56616       -0.39578
H          1.38116       -1.80111       -0.92325
H          0.77907       -3.15492        1.08252
H          2.19260       -2.14821        1.29202
H          0.82630       -0.39710        2.48540
H          1.23011       -3.66762        4.88099
H         -0.57858       -4.01912        2.52816
H         -2.00397       -3.53652        4.43771
H         -1.04676       -4.54372        5.50978
H         -3.15777       -5.68715        4.80495
H         -2.65917       -5.56925        3.11824
H         -1.38518       -7.22064        5.35167
H         -2.07849       -7.79652        3.82818
H          2.43726       -5.14528        2.39515
H          2.97597       -7.71909        2.33366

--Link1--
%chk=JID_8016.chk
%mem=8GB
%nprocshared=4
# B3LYP/6-311++G(d,p) empiricaldispersion=gd3bj scf=xqc pop=npa geom=check

CID_62845283_JID_8016_Energie_neutraal

0 1

--Link1--
%chk=JID_8016.chk
%mem=8GB
%nprocshared=4
# B3LYP/6-311++G(d,p) empiricaldispersion=gd3bj scf=xqc pop=npa geom=check

CID_62845283_JID_8016_Energie_kation

1 2

--Link1--
%chk=JID_8016.chk
%mem=8GB
%nprocshared=4
# B3LYP/6-311++G(d,p) empiricaldispersion=gd3bj scf=xqc pop=npa geom=check

CID_62845283_JID_8016_Energie_anion

-1 2
