%chk=JID_8780.chk
%mem=8GB
%nprocshared=4
# opt freq B3LYP/6-31G(d) empiricaldispersion=gd3bj scf=xqc

CID_62782909_JID_8780_neutraal

0 1
C          0.96605       -0.09322       -0.01255
C         -0.16531        0.95763       -0.09458
C          0.46922        2.37301       -0.10583
C          0.72417        3.02254       -1.47550
C         -0.13705        2.57158       -2.65095
C         -0.48611        1.09143       -2.62133
C         -1.11973        0.70955       -1.28427
N         -1.61220       -0.66921       -1.32626
C         -0.07437        3.29972        0.98977
O          0.58917        3.47815        2.01851
N         -1.25368        3.95884        0.93801
C         -2.34376        3.96771       -0.03519
C         -3.58157        3.23578        0.51995
C         -4.32881        3.93361        1.67946
C         -5.46329        4.83287        1.17724
C         -4.92239        2.88356        2.62576
C         -2.61382        5.40381       -0.50483
O         -1.45567        5.93275       -1.15012
H          1.60876       -0.06696       -0.89789
H          0.56999       -1.10718        0.09795
H          1.59680        0.08860        0.86528
H         -0.75058        0.84207        0.82876
H          1.49717        2.23527        0.27293
H          1.76183        2.78583       -1.75296
H          0.69325        4.11532       -1.39942
H          0.38843        2.79896       -3.58686
H         -1.05805        3.16077       -2.69243
H          0.41315        0.49440       -2.81438
H         -1.18100        0.88106       -3.44437
H         -2.01012        1.32626       -1.13970
H         -2.30024       -0.76474       -2.07324
H         -0.85436       -1.30423       -1.57624
H         -1.40866        4.47522        1.79767
H         -1.99655        3.40836       -0.89517
H         -4.28193        3.05411       -0.30570
H         -3.24808        2.24401        0.85414
H         -3.63137        4.54496        2.26314
H         -6.20372        4.25816        0.60998
H         -5.98177        5.30500        2.01910
H         -5.09826        5.63488        0.53258
H         -4.13335        2.25785        3.05618
H         -5.45443        3.36212        3.45505
H         -5.62821        2.22978        2.10183
H         -3.43572        5.43007       -1.22627
H         -2.85118        6.06865        0.33125
H         -0.72323        5.84454       -0.51206

--Link1--
%chk=JID_8780.chk
%mem=8GB
%nprocshared=4
# B3LYP/6-311++G(d,p) empiricaldispersion=gd3bj scf=xqc pop=npa geom=check

CID_62782909_JID_8780_Energie_neutraal

0 1

--Link1--
%chk=JID_8780.chk
%mem=8GB
%nprocshared=4
# B3LYP/6-311++G(d,p) empiricaldispersion=gd3bj scf=xqc pop=npa geom=check

CID_62782909_JID_8780_Energie_kation

1 2

--Link1--
%chk=JID_8780.chk
%mem=8GB
%nprocshared=4
# B3LYP/6-311++G(d,p) empiricaldispersion=gd3bj scf=xqc pop=npa geom=check

CID_62782909_JID_8780_Energie_anion

-1 2
