%chk=JID_4693.chk
%mem=8GB
%nprocshared=4
# opt freq B3LYP/6-31G(d) empiricaldispersion=gd3bj scf=xqc

CID_65970516_JID_4693_neutraal

0 1
C          1.06435       -0.06417       -0.04171
C          0.46623       -1.26379       -0.76418
C          0.77504       -2.62668       -0.10335
C          0.26518       -2.65344        1.34736
C          0.17591       -3.80275       -0.92513
C          0.77406       -3.86219       -2.35336
O          1.87527       -4.37908       -2.56769
N          0.08302       -3.35432       -3.41789
C         -1.22198       -2.68483       -3.45205
C         -2.11749       -3.11655       -4.63583
C         -2.50646       -1.63097       -4.80527
C         -1.18387       -1.27647       -4.09158
O         -3.71140       -1.22290       -4.13066
N          0.47631       -5.10239       -0.27101
H          0.57786        0.11100        0.92202
H          0.92777        0.84021       -0.64384
H          2.13726       -0.20003        0.12610
H         -0.61831       -1.12384       -0.84294
H          0.86845       -1.25363       -1.78263
H          1.86774       -2.74196       -0.07605
H         -0.81784       -2.49501        1.38602
H          0.48651       -3.60651        1.83788
H          0.74549       -1.87974        1.95387
H         -0.91199       -3.72160       -0.96261
H          0.60611       -3.48168       -4.27890
H         -1.76571       -2.69631       -2.50330
H         -2.93582       -3.79344       -4.37390
H         -1.58362       -3.52903       -5.50021
H         -2.54220       -1.30885       -5.85174
H         -0.34916       -1.09896       -4.78009
H         -1.23743       -0.44367       -3.38457
H         -3.77195       -0.26247       -4.27598
H          0.09722       -5.85069       -0.85280
H          1.49127       -5.23619       -0.32528

--Link1--
%chk=JID_4693.chk
%mem=8GB
%nprocshared=4
# B3LYP/6-311++G(d,p) empiricaldispersion=gd3bj scf=xqc pop=npa geom=check

CID_65970516_JID_4693_Energie_neutraal

0 1

--Link1--
%chk=JID_4693.chk
%mem=8GB
%nprocshared=4
# B3LYP/6-311++G(d,p) empiricaldispersion=gd3bj scf=xqc pop=npa geom=check

CID_65970516_JID_4693_Energie_kation

1 2

--Link1--
%chk=JID_4693.chk
%mem=8GB
%nprocshared=4
# B3LYP/6-311++G(d,p) empiricaldispersion=gd3bj scf=xqc pop=npa geom=check

CID_65970516_JID_4693_Energie_anion

-1 2
