%chk=JID_7549.chk
%mem=8GB
%nprocshared=4
# opt freq B3LYP/6-31G(d) empiricaldispersion=gd3bj scf=xqc

CID_113549684_JID_7549_neutraal

0 1
C          0.90436        0.00165       -0.02917
C          0.63493        0.77079        1.25275
N          1.02683        2.16472        1.16306
C          0.22688        3.27154        1.31091
C         -1.14979        3.42955        1.53213
C         -1.64481        4.73372        1.63824
C         -0.79901        5.83547        1.53054
C          0.57216        5.66385        1.31046
C          1.09061        4.35957        1.19774
C          2.37318        3.79046        0.97221
N          2.32531        2.45363        0.94711
C          3.67068        4.49826        0.74821
C          4.59450        4.50811        1.98464
C          5.13510        3.11567        2.40511
C          5.88942        2.37032        1.33344
C          7.20213        2.10847        1.36827
N          5.71956        5.44266        1.74679
H          0.38301        0.45729       -0.87769
H          0.55948       -1.03227        0.07008
H          1.97332       -0.02115       -0.26570
H         -0.42912        0.71979        1.50045
H          1.19342        0.33544        2.08887
H         -1.81930        2.58020        1.61609
H         -2.70831        4.88958        1.80692
H         -1.20664        6.84006        1.61608
H          1.22343        6.52897        1.22591
H          4.18047        4.06155       -0.11983
H          3.45014        5.53601        0.46280
H          4.02823        4.90919        2.83528
H          5.77679        3.24040        3.28825
H          4.30706        2.48284        2.74481
H          5.29909        2.00101        0.49562
H          7.67470        1.54864        0.56666
H          7.82967        2.43599        2.19059
H          6.32202        5.44449        2.56998
H          6.30024        5.05905        0.99800

--Link1--
%chk=JID_7549.chk
%mem=8GB
%nprocshared=4
# B3LYP/6-311++G(d,p) empiricaldispersion=gd3bj scf=xqc pop=npa geom=check

CID_113549684_JID_7549_Energie_neutraal

0 1

--Link1--
%chk=JID_7549.chk
%mem=8GB
%nprocshared=4
# B3LYP/6-311++G(d,p) empiricaldispersion=gd3bj scf=xqc pop=npa geom=check

CID_113549684_JID_7549_Energie_kation

1 2

--Link1--
%chk=JID_7549.chk
%mem=8GB
%nprocshared=4
# B3LYP/6-311++G(d,p) empiricaldispersion=gd3bj scf=xqc pop=npa geom=check

CID_113549684_JID_7549_Energie_anion

-1 2
