%chk=JID_10842.chk
%mem=8GB
%nprocshared=4
# opt freq B3LYP/6-31G(d) empiricaldispersion=gd3bj scf=xqc

CID_66029710_JID_10842_neutraal

0 1
C          1.02733        0.06166       -0.07383
C          1.10126        1.53328        0.11228
N          0.25562        2.13384        0.95842
N          0.56496        3.44550        0.86295
C          1.63220        3.70133        0.02919
C          1.95657        2.47136       -0.52002
N          2.92823        2.20055       -1.53268
O          3.19189        3.10620       -2.33352
O          3.43605        1.07199       -1.53395
O          2.06480        4.95527       -0.12694
C          3.46766        5.19226        0.03940
C          3.84946        5.62364        1.47910
C          3.88680        4.42700        2.44354
C          4.30166        4.86264        3.84700
C          3.42272        6.00955        4.33409
C          3.37901        7.14633        3.31589
N          2.95042        6.66908        2.00193
C         -0.21644        4.43076        1.60949
C         -1.60159        4.60484        0.98762
C         -0.31760        4.08058        3.09467
H          0.92695       -0.18938       -1.13453
H          0.16628       -0.36595        0.45091
H          1.92984       -0.41852        0.31718
H          4.08052        4.33869       -0.26788
H          3.71424        6.01388       -0.64402
H          4.86678        6.03488        1.41677
H          4.59134        3.67093        2.07725
H          2.90628        3.94491        2.50394
H          4.23180        4.01586        4.53862
H          5.35046        5.18370        3.83536
H          2.40596        5.63855        4.51444
H          3.80023        6.38360        5.29236
H          2.67404        7.90978        3.66242
H          4.36151        7.62787        3.24069
H          2.91536        7.44959        1.34599
H          0.31209        5.38684        1.53062
H         -2.18844        3.68144        1.04666
H         -2.16080        5.39411        1.50091
H         -1.52310        4.88022       -0.06998
H          0.67507        3.93739        3.53357
H         -0.81711        4.88414        3.64619
H         -0.88827        3.15938        3.25597

--Link1--
%chk=JID_10842.chk
%mem=8GB
%nprocshared=4
# B3LYP/6-311++G(d,p) empiricaldispersion=gd3bj scf=xqc pop=npa geom=check

CID_66029710_JID_10842_Energie_neutraal

0 1

--Link1--
%chk=JID_10842.chk
%mem=8GB
%nprocshared=4
# B3LYP/6-311++G(d,p) empiricaldispersion=gd3bj scf=xqc pop=npa geom=check

CID_66029710_JID_10842_Energie_kation

1 2

--Link1--
%chk=JID_10842.chk
%mem=8GB
%nprocshared=4
# B3LYP/6-311++G(d,p) empiricaldispersion=gd3bj scf=xqc pop=npa geom=check

CID_66029710_JID_10842_Energie_anion

-1 2
