%chk=JID_4783.chk
%mem=8GB
%nprocshared=4
# opt freq B3LYP/6-31G(d) empiricaldispersion=gd3bj scf=xqc

CID_13827862_JID_4783_neutraal

0 1
C          0.89200        0.23300       -1.51700
C          0.80848        0.34872        0.01846
C         -0.03226        1.56910        0.43264
C         -1.49672        1.45231       -0.00448
C         -2.13646        0.08864        0.23252
C         -1.33819       -0.95753        0.52605
C          0.16191       -0.91570        0.62123
N         -3.54111        0.01583        0.16109
C         -4.31871       -1.18206        0.52947
C         -4.65786       -1.97309       -0.73340
C         -5.41500       -1.09961       -1.73628
C         -4.68649        0.22154       -1.99279
C         -4.34161        0.92825       -0.67997
C          2.23880        0.50228        0.56443
H          1.54779       -0.59444       -1.81176
H         -0.08426        0.04878       -1.97624
H          1.29896        1.15033       -1.95725
H         -0.00140        1.67957        1.52557
H          0.39413        2.49180        0.01921
H         -2.06186        2.22075        0.53816
H         -1.56754        1.69352       -1.07241
H         -1.76120       -1.93816        0.71250
H          0.57121       -1.80828        0.13120
H          0.41957       -1.00285        1.68493
H         -5.24528       -0.86742        1.02734
H         -3.79882       -1.81236        1.25759
H         -5.26465       -2.84757       -0.47402
H         -3.73663       -2.34339       -1.19951
H         -5.54755       -1.64232       -2.67873
H         -6.41772       -0.88775       -1.34474
H         -3.76612        0.02256       -2.55591
H         -5.31176        0.87306       -2.61314
H         -3.83098        1.87132       -0.89374
H         -5.26198        1.19786       -0.14653
H          2.23963        0.60501        1.65544
H          2.85378       -0.36895        0.31229
H          2.72755        1.39014        0.14772

--Link1--
%chk=JID_4783.chk
%mem=8GB
%nprocshared=4
# B3LYP/6-311++G(d,p) empiricaldispersion=gd3bj scf=xqc pop=npa geom=check

CID_13827862_JID_4783_Energie_neutraal

0 1

--Link1--
%chk=JID_4783.chk
%mem=8GB
%nprocshared=4
# B3LYP/6-311++G(d,p) empiricaldispersion=gd3bj scf=xqc pop=npa geom=check

CID_13827862_JID_4783_Energie_kation

1 2

--Link1--
%chk=JID_4783.chk
%mem=8GB
%nprocshared=4
# B3LYP/6-311++G(d,p) empiricaldispersion=gd3bj scf=xqc pop=npa geom=check

CID_13827862_JID_4783_Energie_anion

-1 2
