%chk=JID_10336.chk
%mem=8GB
%nprocshared=4
# opt freq B3LYP/6-31G(d) empiricaldispersion=gd3bj scf=xqc

CID_136191949_JID_10336_neutraal

0 1
C          1.06179        0.03767        0.06901
C         -0.32530       -0.56127       -0.16063
C         -0.52851       -0.97251       -1.62252
C         -0.78408        0.21627       -2.54199
C         -1.97650        1.04245       -2.06681
C         -1.85377        1.51607       -0.60870
C         -1.46268        0.35198        0.33143
C         -3.19454        2.15038       -0.15813
S         -2.75032        3.44590        1.04089
C         -1.15381        3.63812        0.32435
N         -0.48006        4.67094        0.64695
C          0.85407        4.93001        0.09344
C          1.88494        3.92702        0.61697
C          2.67741        3.51455       -0.61443
N          1.69302        3.59425       -1.70840
C          0.93019        4.84044       -1.43722
C          1.75547        5.93914       -2.09701
C          2.29364        5.26581       -3.34620
C          2.33518        3.77639       -3.01754
N         -0.88933        2.60009       -0.51452
H          1.17537        0.38078        1.10239
H          1.26830        0.87549       -0.59621
H          1.83477       -0.71685       -0.11460
H         -0.36296       -1.47566        0.44740
H          0.33912       -1.53771       -1.98306
H         -1.38772       -1.65335       -1.68129
H          0.10963        0.84608       -2.60889
H         -0.98115       -0.14887       -3.55683
H         -2.88218        0.42992       -2.17157
H         -2.10064        1.90093       -2.73951
H         -2.34573       -0.29089        0.45659
H         -1.22032        0.72428        1.33517
H         -3.70051        2.64566       -0.99453
H         -3.88827        1.42781        0.28151
H          1.13811        5.93851        0.41744
H          2.53619        4.38248        1.37071
H          1.41537        3.05329        1.08229
H          3.08363        2.50358       -0.51318
H          3.52050        4.20255       -0.75773
H         -0.05573        4.79798       -1.91559
H          1.15271        6.82126       -2.33461
H          2.58733        6.26757       -1.46225
H          3.27969        5.65605       -3.61674
H          1.61545        5.44372       -4.18897
H          3.35786        3.38233       -3.04375
H          1.76731        3.22075       -3.77284
H          0.00841        2.56029       -0.99355

--Link1--
%chk=JID_10336.chk
%mem=8GB
%nprocshared=4
# B3LYP/6-311++G(d,p) empiricaldispersion=gd3bj scf=xqc pop=npa geom=check

CID_136191949_JID_10336_Energie_neutraal

0 1

--Link1--
%chk=JID_10336.chk
%mem=8GB
%nprocshared=4
# B3LYP/6-311++G(d,p) empiricaldispersion=gd3bj scf=xqc pop=npa geom=check

CID_136191949_JID_10336_Energie_kation

1 2

--Link1--
%chk=JID_10336.chk
%mem=8GB
%nprocshared=4
# B3LYP/6-311++G(d,p) empiricaldispersion=gd3bj scf=xqc pop=npa geom=check

CID_136191949_JID_10336_Energie_anion

-1 2
