%chk=JID_9499.chk
%mem=8GB
%nprocshared=4
# opt freq B3LYP/6-31G(d) empiricaldispersion=gd3bj scf=xqc

CID_136498319_JID_9499_neutraal

0 1
C          0.99582       -0.04993       -0.08654
C          0.32077       -0.10144        1.30359
C          0.80497        1.16676        2.05590
C         -1.20931        0.04611        1.15387
C          0.67208       -1.42545        2.02701
C          1.29863       -1.40869        3.28539
C          1.63209       -2.58985        3.94547
C          1.33932       -3.82471        3.36225
C          0.74079       -3.92238        2.08948
C          0.37715       -2.70047        1.47632
O         -0.34811       -2.71982        0.31878
C          0.52609       -5.33192        1.48213
C          1.77188       -6.23003        1.71503
C         -0.68730       -5.98018        2.17850
C          0.28241       -5.37792       -0.04514
C          2.23771       -2.60047        5.29789
N          3.11467       -1.80391        5.84146
N          3.65603       -0.83552        5.06737
C          4.85145       -1.20976        4.30860
H          0.82483        0.91821       -0.57231
H          0.61710       -0.81135       -0.77392
H          2.07970       -0.19275       -0.00215
H          0.56007        2.07737        1.49537
H          0.32715        1.26299        3.03792
H          1.89200        1.16160        2.19901
H         -1.64914       -0.70990        0.49787
H         -1.70867       -0.03231        2.12682
H         -1.47077        1.02031        0.72366
H          1.51566       -0.47361        3.79072
H          1.59752       -4.72205        3.91863
H         -1.17116       -3.19254        0.53095
H          1.94238       -6.45605        2.77223
H          1.66237       -7.20043        1.21570
H          2.67775       -5.75413        1.32105
H         -1.59479       -5.38337        2.02944
H         -0.87990       -6.98501        1.78509
H         -0.53256       -6.07631        3.25947
H         -0.70878       -5.00765       -0.32302
H          1.04067       -4.80510       -0.59058
H          0.31966       -6.40800       -0.42141
H          1.89249       -3.42745        5.94364
H          3.93089       -0.05971        5.67656
H          5.19886       -0.35150        3.72586
H          5.65762       -1.52092        4.98041
H          4.63887       -2.02526        3.61062

--Link1--
%chk=JID_9499.chk
%mem=8GB
%nprocshared=4
# B3LYP/6-311++G(d,p) empiricaldispersion=gd3bj scf=xqc pop=npa geom=check

CID_136498319_JID_9499_Energie_neutraal

0 1

--Link1--
%chk=JID_9499.chk
%mem=8GB
%nprocshared=4
# B3LYP/6-311++G(d,p) empiricaldispersion=gd3bj scf=xqc pop=npa geom=check

CID_136498319_JID_9499_Energie_kation

1 2

--Link1--
%chk=JID_9499.chk
%mem=8GB
%nprocshared=4
# B3LYP/6-311++G(d,p) empiricaldispersion=gd3bj scf=xqc pop=npa geom=check

CID_136498319_JID_9499_Energie_anion

-1 2
