%chk=JID_8044.chk
%mem=8GB
%nprocshared=4
# opt freq B3LYP/6-31G(d) empiricaldispersion=gd3bj scf=xqc

CID_2975576_JID_8044_neutraal

0 1
C          2.49200        0.00400       -0.01400
C          1.00045       -0.09232        0.12044
C          0.30686       -1.21319       -0.34709
C         -1.08505       -1.31409       -0.20065
C         -1.80575       -0.29535        0.41770
C         -1.10188        0.80952        0.91799
C          0.28467        0.91243        0.77207
N         -3.19520       -0.28531        0.62412
C         -4.23169       -1.05836        0.15877
O         -5.36975       -0.89983        0.59961
C         -4.03396       -2.12449       -0.90357
S         -4.06789       -1.53241       -2.47479
N         -3.93164       -3.47101       -0.48370
C         -4.19704       -3.80393        0.92276
C         -3.56480       -5.12377        1.35254
C         -3.94057       -6.25322        0.40392
C         -3.54057       -5.88332       -1.01740
C         -4.16365       -4.55841       -1.44605
H          2.97536       -0.41139        0.87557
H          2.84102       -0.54517       -0.89480
H          2.80565        1.04614       -0.13547
H          0.84508       -2.02512       -0.83267
H         -1.54975       -2.22052       -0.56573
H         -1.62515        1.62020        1.42012
H          0.79806        1.78648        1.16671
H         -3.55138        0.45618        1.21544
H         -5.28622       -3.84363        1.04764
H         -3.81806       -3.01409        1.57778
H         -3.88040       -5.37160        2.37221
H         -2.47285       -5.01510        1.36961
H         -3.43683       -7.17845        0.70528
H         -5.02052       -6.43951        0.45282
H         -2.44752       -5.80623       -1.07624
H         -3.84560       -6.67683       -1.70913
H         -3.76461       -4.29503       -2.42951
H         -5.25059       -4.66831       -1.55134

--Link1--
%chk=JID_8044.chk
%mem=8GB
%nprocshared=4
# B3LYP/6-311++G(d,p) empiricaldispersion=gd3bj scf=xqc pop=npa geom=check

CID_2975576_JID_8044_Energie_neutraal

0 1

--Link1--
%chk=JID_8044.chk
%mem=8GB
%nprocshared=4
# B3LYP/6-311++G(d,p) empiricaldispersion=gd3bj scf=xqc pop=npa geom=check

CID_2975576_JID_8044_Energie_kation

1 2

--Link1--
%chk=JID_8044.chk
%mem=8GB
%nprocshared=4
# B3LYP/6-311++G(d,p) empiricaldispersion=gd3bj scf=xqc pop=npa geom=check

CID_2975576_JID_8044_Energie_anion

-1 2
