%chk=JID_8404.chk
%mem=8GB
%nprocshared=4
# opt freq B3LYP/6-31G(d) empiricaldispersion=gd3bj scf=xqc

CID_112228527_JID_8404_neutraal

0 1
C          0.98963        0.09502        0.02938
C         -0.09512        0.06681       -1.03888
C         -0.05235       -1.19629       -1.89957
N         -0.54065       -2.35099       -1.15746
C         -0.53467       -3.61801       -1.65808
N         -0.40447       -4.73171       -1.03332
C         -0.22524       -4.70218        0.42093
C         -0.09338       -6.07150        1.05349
C          0.07701       -6.18770        2.44106
C          0.15689       -7.44133        3.05760
C          0.10558       -8.61039        2.29105
C         -0.01550       -8.50298        0.90223
C         -0.12406       -7.24890        0.29280
C          0.23305       -9.95459        2.94262
O          0.09237       -5.04569        3.20371
C          1.38234       -4.83495        3.78949
C          1.37385       -3.47014        4.45357
N         -0.72387       -3.67816       -2.99748
H          0.86399       -0.71432        0.75460
H          0.95249        1.04226        0.57693
H          1.98388        0.00337       -0.41939
H         -1.07794        0.17186       -0.56443
H          0.04392        0.93812       -1.68992
H         -0.68770       -1.03115       -2.77711
H          0.96913       -1.37867       -2.25309
H         -0.31981       -2.30880       -0.17108
H         -1.08812       -4.20461        0.88165
H          0.68564       -4.13858        0.65998
H          0.24315       -7.50559        4.13861
H         -0.03949       -9.39500        0.28041
H         -0.23617       -7.19641       -0.78809
H          1.28769      -10.23812        3.01234
H         -0.19815       -9.94318        3.94918
H         -0.30175      -10.71940        2.36963
H          1.59392       -5.59976        4.54512
H          2.16169       -4.85902        3.01768
H          0.60074       -3.42453        5.22787
H          2.34336       -3.25243        4.91025
H          1.14150       -2.68717        3.72415
H         -1.50471       -3.10814       -3.29472
H         -0.86809       -4.64541       -3.26982

--Link1--
%chk=JID_8404.chk
%mem=8GB
%nprocshared=4
# B3LYP/6-311++G(d,p) empiricaldispersion=gd3bj scf=xqc pop=npa geom=check

CID_112228527_JID_8404_Energie_neutraal

0 1

--Link1--
%chk=JID_8404.chk
%mem=8GB
%nprocshared=4
# B3LYP/6-311++G(d,p) empiricaldispersion=gd3bj scf=xqc pop=npa geom=check

CID_112228527_JID_8404_Energie_kation

1 2

--Link1--
%chk=JID_8404.chk
%mem=8GB
%nprocshared=4
# B3LYP/6-311++G(d,p) empiricaldispersion=gd3bj scf=xqc pop=npa geom=check

CID_112228527_JID_8404_Energie_anion

-1 2
