%chk=JID_8070.chk
%mem=8GB
%nprocshared=4
# opt freq B3LYP/6-31G(d) empiricaldispersion=gd3bj scf=xqc

CID_115125136_JID_8070_neutraal

0 1
C          2.54100       -1.13900        0.05100
C          1.37223       -0.38902        0.61806
C          0.31717       -1.08090        1.22860
C         -0.74917       -0.38794        1.80782
C         -0.79697        1.02170        1.72642
C          0.25548        1.71046        1.11476
C          1.34121        1.01032        0.58217
N         -1.94287        1.72250        2.20285
C         -2.98556        1.78498        1.15847
C         -4.27918        2.28303        1.80308
C         -5.48135        2.56669        0.87583
C         -5.95072        1.35517        0.05480
C         -5.22555        1.18857       -1.27897
C         -5.09086        2.50679       -2.03644
N         -4.45841        3.53143       -1.19490
C         -5.28652        3.80640       -0.01542
C         -4.24432        4.75753       -1.96532
N         -1.86034       -1.09566        2.32075
H          3.30049       -1.28790        0.82463
H          2.22938       -2.11616       -0.33275
H          2.98945       -0.59083       -0.78424
H          0.32189       -2.16733        1.24868
H          0.23375        2.79325        1.03822
H          2.15366        1.56527        0.11879
H         -1.66268        2.67226        2.44245
H         -2.65256        2.45962        0.36463
H         -3.15544        0.79203        0.73263
H         -4.59347        1.54204        2.55143
H         -4.06524        3.19663        2.37478
H         -6.30622        2.81087        1.56158
H         -7.01852        1.49141       -0.16429
H         -5.87593        0.43300        0.64258
H         -5.77186        0.46718       -1.89844
H         -4.23219        0.75736       -1.12279
H         -6.07856        2.83747       -2.38418
H         -4.47845        2.32498       -2.92819
H         -4.82984        4.60381        0.58453
H         -6.27335        4.17725       -0.32629
H         -5.18358        5.18593       -2.33363
H         -3.73725        5.51189       -1.35345
H         -3.59310        4.56276       -2.82465
H         -1.58903       -1.93036        2.82638
H         -2.40367       -0.44480        2.89218

--Link1--
%chk=JID_8070.chk
%mem=8GB
%nprocshared=4
# B3LYP/6-311++G(d,p) empiricaldispersion=gd3bj scf=xqc pop=npa geom=check

CID_115125136_JID_8070_Energie_neutraal

0 1

--Link1--
%chk=JID_8070.chk
%mem=8GB
%nprocshared=4
# B3LYP/6-311++G(d,p) empiricaldispersion=gd3bj scf=xqc pop=npa geom=check

CID_115125136_JID_8070_Energie_kation

1 2

--Link1--
%chk=JID_8070.chk
%mem=8GB
%nprocshared=4
# B3LYP/6-311++G(d,p) empiricaldispersion=gd3bj scf=xqc pop=npa geom=check

CID_115125136_JID_8070_Energie_anion

-1 2
