%chk=JID_8797.chk
%mem=8GB
%nprocshared=4
# opt freq B3LYP/6-31G(d) empiricaldispersion=gd3bj scf=xqc

CID_150238642_JID_8797_neutraal

0 1
C          0.95672       -0.06639       -0.06099
C          0.71582        0.17421       -1.55573
C          1.98061        0.12903       -2.41287
C          2.63178       -1.25141       -2.56860
C          1.71720       -2.40593       -3.02745
C          0.93042       -2.08963       -4.31087
C          0.08452       -3.24890       -4.85947
C         -0.88010       -3.91721       -3.87332
C         -1.96806       -2.98441       -3.32862
C         -2.97746       -3.72913       -2.44249
C         -2.44352       -4.07870       -1.04649
C         -2.88554       -3.10388        0.01319
C         -2.13249       -2.22638        0.69722
C         -0.67363       -1.94330        0.48681
C         -0.35012       -0.44842        0.64649
N          2.58487       -3.57130       -3.28706
N          2.57725       -4.46395       -2.41939
N          2.56380       -5.27854       -1.62362
H          1.35298        0.85538        0.38148
H          1.70517       -0.84810        0.10595
H         -0.02114       -0.53092       -1.94780
H          0.26014        1.16655       -1.66947
H          1.73482        0.51294       -3.41060
H          2.72348        0.82218       -1.99905
H          3.46316       -1.14957       -3.27952
H          3.10016       -1.53656       -1.61776
H          1.00989       -2.63194       -2.22296
H          0.26845       -1.23347       -4.14371
H          1.63111       -1.78378       -5.09885
H         -0.48652       -2.88000       -5.72108
H          0.75651       -4.02072       -5.25527
H         -1.36494       -4.74961       -4.39992
H         -0.31760       -4.37002       -3.05167
H         -1.52838       -2.15237       -2.77157
H         -2.51054       -2.54986       -4.17728
H         -3.88873       -3.12374       -2.35840
H         -3.27380       -4.65560       -2.95086
H         -2.85261       -5.05618       -0.75856
H         -1.35744       -4.20830       -1.04928
H         -3.94037       -3.17223        0.28073
H         -2.62139       -1.64699        1.48007
H         -0.08979       -2.51217        1.22009
H         -0.36670       -2.28771       -0.50246
H         -1.16927        0.17698        0.26946
H         -0.25343       -0.22761        1.71699

--Link1--
%chk=JID_8797.chk
%mem=8GB
%nprocshared=4
# B3LYP/6-311++G(d,p) empiricaldispersion=gd3bj scf=xqc pop=npa geom=check

CID_150238642_JID_8797_Energie_neutraal

0 1

--Link1--
%chk=JID_8797.chk
%mem=8GB
%nprocshared=4
# B3LYP/6-311++G(d,p) empiricaldispersion=gd3bj scf=xqc pop=npa geom=check

CID_150238642_JID_8797_Energie_kation

1 2

--Link1--
%chk=JID_8797.chk
%mem=8GB
%nprocshared=4
# B3LYP/6-311++G(d,p) empiricaldispersion=gd3bj scf=xqc pop=npa geom=check

CID_150238642_JID_8797_Energie_anion

-1 2
