%chk=JID_4199.chk
%mem=8GB
%nprocshared=4
# opt freq B3LYP/6-31G(d) empiricaldispersion=gd3bj scf=xqc

CID_80561741_JID_4199_neutraal

0 1
C          0.95646       -0.00735        0.08972
C          0.69402        0.32361        1.57852
C          0.58626        1.85719        1.69843
C          0.14870        2.40788        3.05357
C         -1.31013        2.09717        3.38552
N         -1.57992        0.81636        4.02821
C         -0.96951       -0.38940        3.48772
C         -0.61216       -0.39807        1.99344
C         -1.67396        0.95019        5.48867
C         -0.30324        1.01973        6.20547
C         -0.97361        0.19751        7.33526
C         -1.92971       -0.37233        6.25574
N         -0.06121       -0.84346        7.79439
C          1.90603       -0.19076        2.38015
H          0.12027        0.31468       -0.54139
H          1.09038       -1.08479       -0.06026
H          1.86079        0.49275       -0.27561
H          1.55979        2.30298        1.45225
H         -0.10873        2.23408        0.93539
H          0.24965        3.50037        3.00505
H          0.82442        2.08739        3.85164
H         -1.91472        2.15901        2.47151
H         -1.69510        2.91414        4.01088
H         -1.70342       -1.19573        3.61546
H         -0.09161       -0.69788        4.06043
H         -1.45822       -0.01166        1.40932
H         -0.52132       -1.45442        1.70157
H         -2.36770        1.73942        5.81287
H          0.01445        2.02679        6.49428
H          0.54048        0.52983        5.70757
H         -1.45176        0.79052        8.12127
H         -1.58922       -1.30702        5.79875
H         -2.96327       -0.51815        6.58608
H         -0.50588       -1.53871        8.39281
H          0.39820       -1.36889        7.05125
H          1.97922       -1.28275        2.32354
H          2.84164        0.22258        1.98555
H          1.85830        0.08547        3.43696

--Link1--
%chk=JID_4199.chk
%mem=8GB
%nprocshared=4
# B3LYP/6-311++G(d,p) empiricaldispersion=gd3bj scf=xqc pop=npa geom=check

CID_80561741_JID_4199_Energie_neutraal

0 1

--Link1--
%chk=JID_4199.chk
%mem=8GB
%nprocshared=4
# B3LYP/6-311++G(d,p) empiricaldispersion=gd3bj scf=xqc pop=npa geom=check

CID_80561741_JID_4199_Energie_kation

1 2

--Link1--
%chk=JID_4199.chk
%mem=8GB
%nprocshared=4
# B3LYP/6-311++G(d,p) empiricaldispersion=gd3bj scf=xqc pop=npa geom=check

CID_80561741_JID_4199_Energie_anion

-1 2
