%chk=JID_9066.chk
%mem=8GB
%nprocshared=4
# opt freq B3LYP/6-31G(d) empiricaldispersion=gd3bj scf=xqc

CID_55046788_JID_9066_neutraal

0 1
C          0.96514        0.01756       -0.09207
C          0.92598        1.49848        0.27001
N          1.44164        2.35309       -0.80965
C          2.90255        2.28707       -0.96006
C          3.45781        3.24026        0.08536
C          2.39369        4.33544        0.20915
C          1.17895        3.78024       -0.54474
C          2.05736        4.67389        1.66230
N          3.19594        5.22220        2.38199
C          3.45841        6.52435        2.74088
O          4.37016        6.74187        3.53918
C          2.66120        7.66515        2.21433
N          2.07873        7.54610        1.00491
N          1.36250        8.60490        0.48573
C          1.25742        9.77248        1.15814
C          1.84761        9.89962        2.41034
C          2.57261        8.83682        2.94535
N          0.51410       10.86001        0.66089
C          0.02515       10.67253       -0.69628
H          0.44394       -0.17105       -1.03663
H          0.46696       -0.56921        0.68693
H          1.98871       -0.35725       -0.18158
H         -0.12657        1.75083        0.45072
H          1.45611        1.65430        1.21589
H          3.16683        2.64504       -1.96341
H          3.32133        1.28097       -0.86795
H          3.60863        2.71267        1.03439
H          4.42476        3.65239       -0.22169
H          2.75204        5.23656       -0.30392
H          0.22475        3.95817       -0.03564
H          1.10315        4.28934       -1.51456
H          1.21099        5.36392        1.72206
H          1.75893        3.77279        2.20929
H          3.83420        4.56409        2.81302
H          1.74387       10.82008        2.97586
H          3.05116        8.92434        3.91533
H          1.06294       11.71100        0.74910
H         -0.53497       11.56344       -0.99799
H          0.85059       10.54380       -1.40516
H         -0.65686        9.81821       -0.76446

--Link1--
%chk=JID_9066.chk
%mem=8GB
%nprocshared=4
# B3LYP/6-311++G(d,p) empiricaldispersion=gd3bj scf=xqc pop=npa geom=check

CID_55046788_JID_9066_Energie_neutraal

0 1

--Link1--
%chk=JID_9066.chk
%mem=8GB
%nprocshared=4
# B3LYP/6-311++G(d,p) empiricaldispersion=gd3bj scf=xqc pop=npa geom=check

CID_55046788_JID_9066_Energie_kation

1 2

--Link1--
%chk=JID_9066.chk
%mem=8GB
%nprocshared=4
# B3LYP/6-311++G(d,p) empiricaldispersion=gd3bj scf=xqc pop=npa geom=check

CID_55046788_JID_9066_Energie_anion

-1 2
