%chk=JID_5664.chk
%mem=8GB
%nprocshared=4
# opt=(cartesian,calcfc) freq B3LYP/6-31G(d) empiricaldispersion=gd3bj scf=xqc

CID_116376780_JID_5664_neutraal

0 1
6	-1.894565	 -1.337028	 -0.290751
6	-0.478126	 -0.739778	 -0.482460
6	-0.421634	 0.691149	 0.201391
6	-1.631431	 0.831606	 1.136696
16	-2.957011	 0.056553	 0.173474
8	-3.145787	 0.894563	 -1.038734
8	-4.109313	 -0.346622	 0.990978
8	-0.390669	 1.729663	 -0.758112
7	0.502477	 -1.726093	 -0.051515
6	1.833905	 -1.667783	 -0.675934
6	2.762372	 -0.566771	 -0.236828
6	3.849231	 -0.706495	 0.575408
8	4.468877	 0.491994	 0.772717
6	3.757348	 1.420524	 0.067496
6	2.709876	 0.836214	 -0.571449
1	-1.915389	 -2.055035	 0.537349
1	-2.299737	 -1.811056	 -1.188781
1	-0.309078	 -0.557646	 -1.546844
1	0.503787	 0.777634	 0.769766
1	-1.881631	 1.869742	 1.358183
1	-1.528473	 0.259960	 2.064745
1	-1.264088	 1.733075	 -1.200235
1	0.593107	 -1.727826	 0.963207
1	2.320056	 -2.635765	 -0.487889
1	1.669709	 -1.608149	 -1.761231
1	4.304890	 -1.556442	 1.061127
1	4.127825	 2.432163	 0.122375
1	1.967154	 1.330524	 -1.182971

--Link1--
%chk=JID_5664.chk
%mem=8GB
%nprocshared=4
# B3LYP/6-311++G(d,p) empiricaldispersion=gd3bj scf=xqc pop=npa geom=check

CID_116376780_JID_5664_Energie_neutraal

0 1

--Link1--
%chk=JID_5664.chk
%mem=8GB
%nprocshared=4
# B3LYP/6-311++G(d,p) empiricaldispersion=gd3bj scf=xqc pop=npa geom=check

CID_116376780_JID_5664_Energie_kation

1 2

--Link1--
%chk=JID_5664.chk
%mem=8GB
%nprocshared=4
# B3LYP/6-311++G(d,p) empiricaldispersion=gd3bj scf=xqc pop=npa geom=check

CID_116376780_JID_5664_Energie_anion

-1 2
