%chk=JID_7391.chk
%mem=8GB
%nprocshared=4
# opt=(cartesian,calcfc) freq B3LYP/6-31G(d) empiricaldispersion=gd3bj scf=xqc

CID_81685766_JID_7391_neutraal

0 1
6	1.380134	 1.806948	 0.664400
6	2.743020	 1.359538	 0.122970
6	3.896826	 2.127564	 0.773543
7	2.969309	 -0.076013	 0.328208
6	2.451551	 -1.143382	 -0.339827
8	2.660914	 -2.305486	 0.057111
6	1.625078	 -0.896704	 -1.588612
6	0.251025	 -1.577594	 -1.517388
7	-0.641661	 -0.969128	 -0.533276
6	-0.458591	 -1.456044	 0.856296
6	-1.758523	 -1.996685	 1.445887
8	-2.829998	 -1.065102	 1.376441
6	-2.910334	 -0.351059	 0.133021
6	-2.046300	 -0.998902	 -0.941102
6	-2.535011	 1.114117	 0.408698
7	-2.409777	 1.887350	 -0.823025
6	-2.353565	 3.326232	 -0.591296
1	1.327765	 1.641172	 1.746750
1	0.574185	 1.234272	 0.196077
1	1.216472	 2.874440	 0.473081
1	2.775842	 1.551574	 -0.954905
1	3.920060	 1.951069	 1.856917
1	4.859454	 1.821285	 0.352400
1	3.778557	 3.204300	 0.617164
1	3.465707	 -0.339673	 1.170585
1	1.485188	 0.166366	 -1.795989
1	2.184440	 -1.332789	 -2.425848
1	-0.220477	 -1.478021	 -2.499999
1	0.401898	 -2.652448	 -1.332203
1	-0.092354	 -0.636418	 1.487322
1	0.289670	 -2.255762	 0.881729
1	-2.025140	 -2.938097	 0.940687
1	-1.620479	 -2.222592	 2.507808
1	-3.954329	 -0.394638	 -0.200210
1	-2.166973	 -0.434642	 -1.870949
1	-2.423046	 -2.019592	 -1.134559
1	-3.331836	 1.552243	 1.020669
1	-1.623133	 1.135395	 1.026421
1	-1.541735	 1.604313	 -1.275295
1	-1.550737	 3.647172	 0.098926
1	-2.205604	 3.841308	 -1.546251
1	-3.307661	 3.664823	 -0.171634

--Link1--
%chk=JID_7391.chk
%mem=8GB
%nprocshared=4
# B3LYP/6-311++G(d,p) empiricaldispersion=gd3bj scf=xqc pop=npa geom=check

CID_81685766_JID_7391_Energie_neutraal

0 1

--Link1--
%chk=JID_7391.chk
%mem=8GB
%nprocshared=4
# B3LYP/6-311++G(d,p) empiricaldispersion=gd3bj scf=xqc pop=npa geom=check

CID_81685766_JID_7391_Energie_kation

1 2

--Link1--
%chk=JID_7391.chk
%mem=8GB
%nprocshared=4
# B3LYP/6-311++G(d,p) empiricaldispersion=gd3bj scf=xqc pop=npa geom=check

CID_81685766_JID_7391_Energie_anion

-1 2
