%chk=JID_6594.chk
%mem=8GB
%nprocshared=4
# opt freq B3LYP/6-31G(d) empiricaldispersion=gd3bj scf=xqc

CID_130134280_JID_6594_neutraal

0 1
C          1.05416        0.06289        0.05579
C          0.60499       -1.37909       -0.17780
C          1.06735       -2.44316        0.86788
C          0.48373       -2.11933        2.25793
C          0.60654       -3.87117        0.48900
C         -0.56901       -4.10383       -0.24575
C         -1.00883       -5.40091       -0.55035
C         -0.29232       -6.51638       -0.10736
C          0.87290       -6.30997        0.63572
C          1.31052       -5.00935        0.92589
N         -0.74700       -7.83443       -0.39553
C         -0.25743       -9.02044        0.11158
C         -1.02821      -10.01942       -0.43365
N         -1.97012       -9.50106       -1.27297
C         -1.77860       -8.20065       -1.23547
N          2.53932       -2.37771        0.95912
H          0.73346        0.43604        1.03195
H          0.60828        0.71275       -0.70525
H          2.13907        0.17272       -0.02578
H         -0.49070       -1.34651       -0.21169
H          0.93912       -1.68037       -1.18010
H         -0.61176       -2.08376        2.22701
H          0.76211       -2.87698        3.00113
H          0.83608       -1.15440        2.63815
H         -1.18647       -3.28125       -0.59586
H         -1.93254       -5.49047       -1.11437
H          1.48275       -7.13283        0.99632
H          2.22485       -4.90832        1.50470
H          0.55579       -9.07077        0.81863
H         -0.95305      -11.08520       -0.25953
H         -2.35244       -7.48911       -1.81212
H          2.83051       -1.42452        1.16557
H          2.85361       -2.91738        1.76266

--Link1--
%chk=JID_6594.chk
%mem=8GB
%nprocshared=4
# B3LYP/6-311++G(d,p) empiricaldispersion=gd3bj scf=xqc pop=npa geom=check

CID_130134280_JID_6594_Energie_neutraal

0 1

--Link1--
%chk=JID_6594.chk
%mem=8GB
%nprocshared=4
# B3LYP/6-311++G(d,p) empiricaldispersion=gd3bj scf=xqc pop=npa geom=check

CID_130134280_JID_6594_Energie_kation

1 2

--Link1--
%chk=JID_6594.chk
%mem=8GB
%nprocshared=4
# B3LYP/6-311++G(d,p) empiricaldispersion=gd3bj scf=xqc pop=npa geom=check

CID_130134280_JID_6594_Energie_anion

-1 2
