%chk=JID_6478.chk
%mem=8GB
%nprocshared=4
# opt freq B3LYP/6-31G(d) empiricaldispersion=gd3bj scf=xqc

CID_106924285_JID_6478_neutraal

0 1
C          0.96480        0.08330        0.04268
C          0.52072        1.44234        0.56414
C          0.96559        2.61491       -0.31525
N          0.34600        2.55127       -1.63648
C          0.56906        3.76037       -2.43684
C          2.02907        4.03622       -2.86498
C          2.62304        2.84160       -3.62682
C          2.14727        5.29231       -3.75738
S          1.86393        6.86264       -2.87932
C          0.16608        7.12553       -3.14973
N         -0.58017        6.40137       -3.95918
C         -1.84512        6.92638       -3.82530
C         -1.81147        7.97574       -2.93367
O         -0.52448        8.11221       -2.49753
C         -2.80754        8.90507       -2.37559
C         -2.98979        6.35251       -4.56127
H          0.47921       -0.16317       -0.90624
H          0.70074       -0.69863        0.76202
H          2.04901        0.05487       -0.10518
H         -0.57048        1.44948        0.67488
H          0.93921        1.58432        1.56792
H          0.67462        3.54414        0.18898
H          2.05815        2.60807       -0.39711
H          0.67020        1.72941       -2.14150
H         -0.05163        3.66742       -3.33643
H          0.16592        4.61031       -1.87711
H          2.64696        4.19237       -1.97134
H          2.01828        2.59224       -4.50525
H          3.64000        3.06359       -3.96847
H          2.68853        1.95305       -2.99136
H          3.17611        5.35981       -4.13083
H          1.51240        5.20937       -4.64615
H         -3.70342        8.94587       -3.00239
H         -3.10577        8.58470       -1.37279
H         -2.39834        9.91767       -2.30621
H         -2.64603        5.74092       -5.40131
H         -3.58688        5.71840       -3.89875
H         -3.63422        7.14192       -4.95995

--Link1--
%chk=JID_6478.chk
%mem=8GB
%nprocshared=4
# B3LYP/6-311++G(d,p) empiricaldispersion=gd3bj scf=xqc pop=npa geom=check

CID_106924285_JID_6478_Energie_neutraal

0 1

--Link1--
%chk=JID_6478.chk
%mem=8GB
%nprocshared=4
# B3LYP/6-311++G(d,p) empiricaldispersion=gd3bj scf=xqc pop=npa geom=check

CID_106924285_JID_6478_Energie_kation

1 2

--Link1--
%chk=JID_6478.chk
%mem=8GB
%nprocshared=4
# B3LYP/6-311++G(d,p) empiricaldispersion=gd3bj scf=xqc pop=npa geom=check

CID_106924285_JID_6478_Energie_anion

-1 2
