%chk=JID_3784.chk
%mem=8GB
%nprocshared=4
# opt freq B3LYP/6-31G(d) empiricaldispersion=gd3bj scf=xqc

CID_65330233_JID_3784_neutraal

0 1
C          1.26600       -0.09700        0.26800
C          0.48170        1.20749        0.14128
C         -0.90644        0.82480       -0.37022
C         -1.01123       -0.68900       -0.15176
C          0.41763       -1.14964       -0.43109
C         -2.06776       -1.33253       -1.05085
C         -2.21097       -2.87529       -0.98268
C         -2.80530       -3.38318        0.36461
C         -1.75292       -3.58116        1.45024
C         -1.19843       -4.96212        1.15470
O         -2.23968       -5.69350        0.49770
C         -3.35485       -4.81089        0.32802
N         -3.07719       -3.20595       -2.12462
H          1.38292       -0.35446        1.32751
H          2.26725       -0.02120       -0.16672
H          0.42019        1.71098        1.11217
H          0.96948        1.89814       -0.55507
H         -0.98324        1.07476       -1.43560
H         -1.69803        1.37028        0.15363
H         -1.26538       -0.85038        0.90144
H          0.62609       -1.14379       -1.50810
H          0.62888       -2.15343       -0.05310
H         -3.03959       -0.86846       -0.83075
H         -1.83374       -1.05182       -2.08872
H         -1.23560       -3.33576       -1.17256
H         -3.59273       -2.69248        0.68876
H         -2.24874       -3.59565        2.42976
H         -0.96235       -2.83651        1.50778
H         -0.33982       -4.91514        0.47723
H         -0.89501       -5.49014        2.06333
H         -4.03055       -4.97701        1.17662
H         -3.90677       -5.08270       -0.57380
H         -3.05015       -4.20888       -2.30598
H         -4.04528       -2.96108       -1.92445

--Link1--
%chk=JID_3784.chk
%mem=8GB
%nprocshared=4
# B3LYP/6-311++G(d,p) empiricaldispersion=gd3bj scf=xqc pop=npa geom=check

CID_65330233_JID_3784_Energie_neutraal

0 1

--Link1--
%chk=JID_3784.chk
%mem=8GB
%nprocshared=4
# B3LYP/6-311++G(d,p) empiricaldispersion=gd3bj scf=xqc pop=npa geom=check

CID_65330233_JID_3784_Energie_kation

1 2

--Link1--
%chk=JID_3784.chk
%mem=8GB
%nprocshared=4
# B3LYP/6-311++G(d,p) empiricaldispersion=gd3bj scf=xqc pop=npa geom=check

CID_65330233_JID_3784_Energie_anion

-1 2
