%chk=JID_9106.chk
%mem=8GB
%nprocshared=4
# opt freq B3LYP/6-31G(d) empiricaldispersion=gd3bj scf=xqc

CID_91717780_JID_9106_neutraal

0 1
C          1.07580        0.02126        0.06166
C          1.14438        0.16985       -1.44920
C          1.39347       -1.15421       -2.17198
C          0.28561       -2.20134       -2.02444
C         -1.09187       -1.78265       -2.55474
C         -1.09548       -1.33271       -4.01459
O         -0.46450       -2.34151       -4.81197
C         -0.15039       -1.96021       -6.07900
O         -0.46497       -0.88262       -6.57457
C          0.62254       -3.06032       -6.83709
C          1.08337       -4.27125       -6.00766
C          1.27045       -5.38631       -7.03179
C          0.26813       -5.09502       -8.14461
C         -0.35861       -3.74226       -7.80992
N          1.71888       -2.44311       -7.59983
C          2.81179       -1.81130       -7.08752
O          3.63158       -1.26408       -7.81238
O          2.86593       -1.84633       -5.73419
C          4.00032       -1.17568       -5.18461
H          0.20565       -0.56681        0.36771
H          0.99185        1.00610        0.53239
H          1.97658       -0.46358        0.45107
H          0.22679        0.64302       -1.81470
H          1.96527        0.85509       -1.69296
H          1.55724       -0.94510       -3.23481
H          2.33106       -1.58926       -1.80360
H          0.60603       -3.11132       -2.54768
H          0.18371       -2.48805       -0.97130
H         -1.75553       -2.65126       -2.45718
H         -1.51751       -0.99111       -1.92817
H         -2.12874       -1.20382       -4.35615
H         -0.56908       -0.37673       -4.11543
H          1.99817       -4.10694       -5.43275
H          0.30983       -4.58261       -5.29441
H          1.11379       -6.37395       -6.58687
H          2.29008       -5.36487       -7.43409
H         -0.49845       -5.87402       -8.21116
H          0.78137       -5.05713       -9.11203
H         -1.33015       -3.90627       -7.32489
H         -0.54778       -3.15375       -8.71477
H          1.59048       -2.26311       -8.58666
H          4.92907       -1.62599       -5.54893
H          3.96547       -0.10795       -5.42257
H          3.96829       -1.28871       -4.09759

--Link1--
%chk=JID_9106.chk
%mem=8GB
%nprocshared=4
# B3LYP/6-311++G(d,p) empiricaldispersion=gd3bj scf=xqc pop=npa geom=check

CID_91717780_JID_9106_Energie_neutraal

0 1

--Link1--
%chk=JID_9106.chk
%mem=8GB
%nprocshared=4
# B3LYP/6-311++G(d,p) empiricaldispersion=gd3bj scf=xqc pop=npa geom=check

CID_91717780_JID_9106_Energie_kation

1 2

--Link1--
%chk=JID_9106.chk
%mem=8GB
%nprocshared=4
# B3LYP/6-311++G(d,p) empiricaldispersion=gd3bj scf=xqc pop=npa geom=check

CID_91717780_JID_9106_Energie_anion

-1 2
