%chk=JID_7011.chk
%mem=8GB
%nprocshared=4
# opt freq B3LYP/6-31G(d) empiricaldispersion=gd3bj scf=xqc

CID_62584205_JID_7011_neutraal

0 1
C          1.06405        0.02173        0.07365
C          0.63678       -1.34453        0.58931
C          0.83438       -1.50805        2.09995
C         -0.05311       -0.61758        2.97882
N         -1.45729       -1.01697        2.90198
C         -2.33669       -0.14006        3.69074
C         -2.71318        1.18273        2.99739
O         -3.67249        0.94258        1.95747
C         -3.16416        0.95035        0.68998
C         -2.42536        2.00916        0.16839
C         -1.94994        1.94537       -1.14424
C         -2.22545        0.83145       -1.94904
C         -3.00959       -0.20536       -1.42712
C         -3.48494       -0.13947       -0.11681
C         -1.70108        0.75368       -3.36161
C         -2.74894        1.08593       -4.42699
C         -3.14804        2.55491       -4.43701
H          0.45333        0.82248        0.49741
H          0.96084        0.06162       -1.01540
H          2.11153        0.22232        0.32023
H         -0.40434       -1.53526        0.30976
H          1.23853       -2.10678        0.07949
H          0.66235       -2.55955        2.36411
H          1.88417       -1.30102        2.34351
H          0.28792       -0.72343        4.01581
H          0.08047        0.43226        2.70111
H         -1.77350       -1.00865        1.93165
H         -3.25712       -0.70356        3.88347
H         -1.88196        0.06675        4.66663
H         -3.21496        1.82424        3.73092
H         -1.82314        1.72777        2.66570
H         -2.22351        2.89417        0.76341
H         -1.36563        2.77439       -1.53710
H         -3.25425       -1.07147       -2.03778
H         -4.09553       -0.94621        0.28019
H         -0.82821        1.40891       -3.47505
H         -1.32828       -0.26477       -3.53255
H         -2.33275        0.83665       -5.41056
H         -3.64447        0.46736       -4.29527
H         -2.27125        3.19902       -4.55853
H         -3.83073        2.75287       -5.26953
H         -3.66019        2.83785       -3.51262

--Link1--
%chk=JID_7011.chk
%mem=8GB
%nprocshared=4
# B3LYP/6-311++G(d,p) empiricaldispersion=gd3bj scf=xqc pop=npa geom=check

CID_62584205_JID_7011_Energie_neutraal

0 1

--Link1--
%chk=JID_7011.chk
%mem=8GB
%nprocshared=4
# B3LYP/6-311++G(d,p) empiricaldispersion=gd3bj scf=xqc pop=npa geom=check

CID_62584205_JID_7011_Energie_kation

1 2

--Link1--
%chk=JID_7011.chk
%mem=8GB
%nprocshared=4
# B3LYP/6-311++G(d,p) empiricaldispersion=gd3bj scf=xqc pop=npa geom=check

CID_62584205_JID_7011_Energie_anion

-1 2
