%chk=JID_631.chk
%mem=8GB
%nprocshared=4
# opt freq B3LYP/6-31G(d) empiricaldispersion=gd3bj scf=xqc

CID_9092_JID_631_neutraal

0 1
C         -2.73000       -0.14400       -0.04000
C         -1.96564        0.99134        0.63358
C         -0.65113        1.28330       -0.09012
C          0.24553        0.03391       -0.20078
C         -0.54250       -1.11610       -0.86309
C         -1.87768       -1.40169       -0.17179
C          0.82496       -0.38162        1.16808
C          2.29273       -0.65013        0.89147
C          2.60549        0.35672       -0.19029
N          1.42568        0.30640       -1.04880
H         -3.05649        0.17900       -1.03632
H         -3.63603       -0.37062        0.53323
H         -2.58642        1.89456        0.64204
H         -1.76848        0.73284        1.68063
H         -0.12299        2.09403        0.42755
H         -0.88681        1.66133       -1.09451
H          0.05627       -2.03598       -0.87920
H         -0.74913       -0.86341       -1.91256
H         -1.70356       -1.82971        0.82187
H         -2.42863       -2.15747       -0.74351
H          0.75081        0.43818        1.89371
H          0.34730       -1.26042        1.61017
H          2.91399       -0.51832        1.78192
H          2.42941       -1.67385        0.52218
H          2.72350        1.36025        0.23481
H          3.51433        0.10146       -0.74201
H          1.32501        1.17512       -1.57037

--Link1--
%chk=JID_631.chk
%mem=8GB
%nprocshared=4
# B3LYP/6-311++G(d,p) empiricaldispersion=gd3bj scf=xqc pop=npa geom=check

CID_9092_JID_631_Energie_neutraal

0 1

--Link1--
%chk=JID_631.chk
%mem=8GB
%nprocshared=4
# B3LYP/6-311++G(d,p) empiricaldispersion=gd3bj scf=xqc pop=npa geom=check

CID_9092_JID_631_Energie_kation

1 2

--Link1--
%chk=JID_631.chk
%mem=8GB
%nprocshared=4
# B3LYP/6-311++G(d,p) empiricaldispersion=gd3bj scf=xqc pop=npa geom=check

CID_9092_JID_631_Energie_anion

-1 2
