%chk=JID_3712.chk
%mem=8GB
%nprocshared=4
# opt freq B3LYP/6-31G(d) empiricaldispersion=gd3bj scf=xqc

CID_103986452_JID_3712_neutraal

0 1
C          1.26600       -0.09700        0.26800
C          0.51996        1.21655        0.04867
C         -0.88881        0.84009       -0.41051
C         -1.01311       -0.66811       -0.15352
C          0.41011       -1.16064       -0.40329
C         -2.07783       -1.33467       -1.03066
C         -2.20315       -2.86460       -0.90688
C         -2.78832       -3.40593        0.41697
C         -1.76145       -3.61448        1.51535
C         -1.15211       -4.96030        1.17679
O         -2.14611       -5.69820        0.45677
C         -3.27687       -4.84304        0.24216
O         -3.35125       -0.73539       -0.78779
H          1.34133       -0.30254        1.34259
H          2.28216       -0.06848       -0.13653
H          0.49431        1.80332        0.97312
H          1.01599        1.82819       -0.71298
H         -0.99600        1.06649       -1.47842
H         -1.65432        1.41102        0.12513
H         -1.27417       -0.78923        0.90520
H          0.62845       -1.19609       -1.47763
H          0.60093       -2.15280        0.01426
H         -1.84175       -1.12068       -2.08080
H         -2.88866       -3.17154       -1.70933
H         -1.24183       -3.33827       -1.13541
H         -3.61599       -2.77079        0.74659
H         -2.28113       -3.69051        2.47927
H         -1.00799       -2.83491        1.62034
H         -0.27630       -4.85329        0.52871
H         -0.85522       -5.51824        2.06956
H         -4.02445       -5.09193        1.00446
H         -3.71334       -5.05119       -0.73896
H         -3.46441       -0.63411        0.17221

--Link1--
%chk=JID_3712.chk
%mem=8GB
%nprocshared=4
# B3LYP/6-311++G(d,p) empiricaldispersion=gd3bj scf=xqc pop=npa geom=check

CID_103986452_JID_3712_Energie_neutraal

0 1

--Link1--
%chk=JID_3712.chk
%mem=8GB
%nprocshared=4
# B3LYP/6-311++G(d,p) empiricaldispersion=gd3bj scf=xqc pop=npa geom=check

CID_103986452_JID_3712_Energie_kation

1 2

--Link1--
%chk=JID_3712.chk
%mem=8GB
%nprocshared=4
# B3LYP/6-311++G(d,p) empiricaldispersion=gd3bj scf=xqc pop=npa geom=check

CID_103986452_JID_3712_Energie_anion

-1 2
