%chk=JID_4356.chk
%mem=8GB
%nprocshared=4
# opt freq B3LYP/6-31G(d) empiricaldispersion=gd3bj scf=xqc

CID_122646721_JID_4356_neutraal

0 1
C          1.03891       -0.07057       -0.05921
C          0.52247        0.31414       -1.45911
C          1.09275       -0.69063       -2.48384
C         -1.01409        0.17386       -1.47819
C          0.93804        1.74250       -1.77555
N          2.02287        1.99967       -2.52294
N          2.07825        3.33966       -2.57578
C          3.11698        4.01522       -3.32136
C          2.77665        5.46917       -3.56201
O          3.44503        6.18127       -4.31159
N          1.68502        6.00219       -2.92818
C          1.06758        5.42649       -1.75780
C          1.10396        3.96012       -1.85645
C          0.33629        2.95053       -1.32486
H          0.75725       -1.09733        0.20057
H          0.63100        0.59192        0.71332
H          2.13179        0.00034       -0.00616
H          0.76186       -1.71236       -2.26401
H          0.76721       -0.44730       -3.50220
H          2.18908       -0.69620       -2.47818
H         -1.48873        0.79648       -0.71128
H         -1.42698        0.47320       -2.44879
H         -1.32049       -0.86161       -1.28947
H          3.21928        3.50801       -4.28538
H          4.04217        3.94333       -2.74301
H          1.55913        6.99258       -3.09793
H          1.62250        5.77134       -0.87951
H          0.04238        5.80369       -1.70123
H         -0.52961        3.05956       -0.68702

--Link1--
%chk=JID_4356.chk
%mem=8GB
%nprocshared=4
# B3LYP/6-311++G(d,p) empiricaldispersion=gd3bj scf=xqc pop=npa geom=check

CID_122646721_JID_4356_Energie_neutraal

0 1

--Link1--
%chk=JID_4356.chk
%mem=8GB
%nprocshared=4
# B3LYP/6-311++G(d,p) empiricaldispersion=gd3bj scf=xqc pop=npa geom=check

CID_122646721_JID_4356_Energie_kation

1 2

--Link1--
%chk=JID_4356.chk
%mem=8GB
%nprocshared=4
# B3LYP/6-311++G(d,p) empiricaldispersion=gd3bj scf=xqc pop=npa geom=check

CID_122646721_JID_4356_Energie_anion

-1 2
