%chk=JID_8219.chk
%mem=8GB
%nprocshared=4
# opt freq B3LYP/6-31G(d) empiricaldispersion=gd3bj scf=xqc

CID_69425571_JID_8219_neutraal

0 1
C          0.96660        0.00603        0.09406
C          0.31421        0.46223        1.39884
C          0.45674        1.96941        1.64517
C         -0.01495        2.81087        0.47428
O         -1.10777        2.62903       -0.06598
N          0.77021        3.85654        0.06502
C          1.97664        3.64720       -0.53572
O          2.30854        4.13382       -1.60394
O          2.80992        2.82733        0.12233
N         -1.09318        0.05886        1.36613
C         -1.79932       -0.32468        2.50290
C         -3.19928       -0.28369        2.46458
C         -3.97451       -0.73956        3.53721
C         -3.36970       -1.28099        4.66862
C         -1.98111       -1.35533        4.71448
C         -1.20992       -0.89308        3.63628
O         -4.23250       -1.70468        5.64028
C         -3.66051       -2.38509        6.75038
H          0.48520        0.44218       -0.78743
H          0.89307       -1.08305       -0.00735
H          2.02872        0.26779        0.07432
H          0.85384       -0.05307        2.19859
H         -0.15024        2.27035        2.50897
H          1.48793        2.20680        1.91625
H          0.22990        4.41143       -0.58839
H          3.60977        2.80606       -0.44580
H         -1.64620        0.65146        0.73954
H         -3.70853        0.10531        1.58585
H         -5.05829       -0.68583        3.47680
H         -1.45852       -1.78004        5.56457
H         -0.13529       -1.01838        3.70843
H         -3.11982       -3.28235        6.43032
H         -3.01277       -1.71854        7.32923
H         -4.47769       -2.70549        7.40379

--Link1--
%chk=JID_8219.chk
%mem=8GB
%nprocshared=4
# B3LYP/6-311++G(d,p) empiricaldispersion=gd3bj scf=xqc pop=npa geom=check

CID_69425571_JID_8219_Energie_neutraal

0 1

--Link1--
%chk=JID_8219.chk
%mem=8GB
%nprocshared=4
# B3LYP/6-311++G(d,p) empiricaldispersion=gd3bj scf=xqc pop=npa geom=check

CID_69425571_JID_8219_Energie_kation

1 2

--Link1--
%chk=JID_8219.chk
%mem=8GB
%nprocshared=4
# B3LYP/6-311++G(d,p) empiricaldispersion=gd3bj scf=xqc pop=npa geom=check

CID_69425571_JID_8219_Energie_anion

-1 2
