%chk=JID_4421.chk
%mem=8GB
%nprocshared=4
# opt freq B3LYP/6-31G(d) empiricaldispersion=gd3bj scf=xqc

CID_59912807_JID_4421_neutraal

0 1
C          0.92658       -0.06337       -0.02436
C          0.41991        0.14741       -1.44184
C         -0.35879       -0.78837       -2.02400
C         -0.90970       -0.73601       -3.38263
C         -2.28937       -0.76563       -3.56853
C         -2.83476       -0.74153       -4.86189
C         -2.03366       -0.68216       -6.01585
C         -0.64487       -0.68493       -5.79443
C         -0.08787       -0.71091       -4.50672
N         -2.57697       -0.67102       -7.30747
C         -4.01675       -0.48149       -7.47242
C         -1.74904       -0.16119       -8.40119
C          0.78711        1.41266       -2.19993
N          1.09173        2.46230       -2.82882
H          0.58713       -1.01315        0.40147
H          0.57059        0.74477        0.62273
H          2.02132       -0.06027       -0.01576
H         -0.64199       -1.68118       -1.46928
H         -2.96290       -0.80326       -2.71577
H         -3.91762       -0.76575       -4.93375
H          0.05274       -0.67606       -6.62632
H          0.99494       -0.71692       -4.40692
H         -4.33180        0.49708       -7.09378
H         -4.30321       -0.53744       -8.52880
H         -4.58230       -1.27244       -6.96803
H         -1.40765        0.85956       -8.19571
H         -0.88531       -0.81001       -8.58066
H         -2.30664       -0.13746       -9.34441

--Link1--
%chk=JID_4421.chk
%mem=8GB
%nprocshared=4
# B3LYP/6-311++G(d,p) empiricaldispersion=gd3bj scf=xqc pop=npa geom=check

CID_59912807_JID_4421_Energie_neutraal

0 1

--Link1--
%chk=JID_4421.chk
%mem=8GB
%nprocshared=4
# B3LYP/6-311++G(d,p) empiricaldispersion=gd3bj scf=xqc pop=npa geom=check

CID_59912807_JID_4421_Energie_kation

1 2

--Link1--
%chk=JID_4421.chk
%mem=8GB
%nprocshared=4
# B3LYP/6-311++G(d,p) empiricaldispersion=gd3bj scf=xqc pop=npa geom=check

CID_59912807_JID_4421_Energie_anion

-1 2
