%chk=JID_6399.chk
%mem=8GB
%nprocshared=4
# opt freq B3LYP/6-31G(d) empiricaldispersion=gd3bj scf=xqc

CID_106310499_JID_6399_neutraal

0 1
C          1.44200        0.04700       -0.00300
C          1.02380        1.36755        0.09969
C         -0.30503        1.65174       -0.15890
N         -1.22062        0.71689       -0.49599
C         -0.79492       -0.56419       -0.61656
C          0.52522       -0.93480       -0.36977
C         -1.82734       -1.60146       -0.98360
C         -2.48661       -2.23939        0.24891
N         -3.46343       -1.34873        0.87590
C         -4.04714       -1.88328        2.10575
C         -3.15533       -1.87218        3.35935
S         -2.80519       -0.19563        4.00028
C         -1.23093        0.17762        3.15998
C         -0.01977        0.06150        4.08594
C          0.36138       -1.36313        4.47137
O          0.82004       -2.09348        3.33994
H          2.47645       -0.21830        0.19787
H          1.71623        2.15524        0.37389
H         -0.68431        2.66762       -0.09405
H          0.84312       -1.96876       -0.45777
H         -2.58666       -1.14924       -1.63412
H         -1.34571       -2.38537       -1.58172
H         -3.00806       -3.14668       -0.07869
H         -1.71341       -2.54419        0.96275
H         -3.06320       -0.41940        1.03106
H         -4.96001       -1.31226        2.31637
H         -4.38577       -2.91127        1.92441
H         -3.69332       -2.39467        4.15833
H         -2.22599       -2.42577        3.20223
H         -1.10755       -0.44616        2.27557
H         -1.30467        1.21442        2.81552
H          0.83419        0.51135        3.56327
H         -0.18391        0.65483        4.99352
H          1.18574       -1.33507        5.19118
H         -0.46301       -1.90842        4.93950
H          0.05889       -2.25109        2.75883

--Link1--
%chk=JID_6399.chk
%mem=8GB
%nprocshared=4
# B3LYP/6-311++G(d,p) empiricaldispersion=gd3bj scf=xqc pop=npa geom=check

CID_106310499_JID_6399_Energie_neutraal

0 1

--Link1--
%chk=JID_6399.chk
%mem=8GB
%nprocshared=4
# B3LYP/6-311++G(d,p) empiricaldispersion=gd3bj scf=xqc pop=npa geom=check

CID_106310499_JID_6399_Energie_kation

1 2

--Link1--
%chk=JID_6399.chk
%mem=8GB
%nprocshared=4
# B3LYP/6-311++G(d,p) empiricaldispersion=gd3bj scf=xqc pop=npa geom=check

CID_106310499_JID_6399_Energie_anion

-1 2
