%chk=JID_6246.chk
%mem=8GB
%nprocshared=4
# opt freq B3LYP/6-31G(d) empiricaldispersion=gd3bj scf=xqc

CID_82767319_JID_6246_neutraal

0 1
C          1.06721       -0.05785       -0.04621
C          0.09069        0.85362        0.73765
C         -0.35186        2.02469       -0.19917
O         -1.14416        1.56946       -1.30133
C         -2.33039        0.94635       -0.80541
C         -1.98824       -0.24971        0.09207
N         -1.12834        0.12821        1.24089
C         -0.85342       -1.03273        2.11218
C         -1.61134       -1.13969        3.48316
C         -1.57160        0.17826        4.28518
C         -2.79275        0.98443        3.83381
C         -3.76862       -0.01525        3.20905
C         -3.13902       -1.38703        3.44794
N         -3.63363       -2.44332        2.57818
C         -0.92079       -2.26395        4.28675
C          0.85846        1.51225        1.90484
H          1.93665        0.51641       -0.38860
H          0.60731       -0.49471       -0.93790
H          1.45274       -0.87810        0.56723
H         -0.92003        2.78418        0.35447
H          0.52499        2.52906       -0.62184
H         -2.91201        0.60692       -1.66850
H         -2.93672        1.68614       -0.26845
H         -1.49675       -1.02063       -0.51343
H         -2.93144       -0.67417        0.43623
H         -0.99263       -1.96873        1.55351
H          0.21159       -1.04463        2.36875
H         -1.67284       -0.02629        5.35953
H         -0.63978        0.73508        4.16400
H         -2.51182        1.74933        3.10192
H         -3.24704        1.50544        4.68350
H         -3.90936        0.21000        2.14911
H         -4.75822        0.05261        3.67523
H         -3.45193       -1.68329        4.46030
H         -3.38636       -2.25528        1.61192
H         -3.18509       -3.32621        2.81858
H         -0.95534       -3.21607        3.74625
H          0.13099       -2.02196        4.47755
H         -1.39897       -2.41783        5.26070
H          1.29570        0.78029        2.59045
H          1.68677        2.12549        1.52947
H          0.20533        2.17470        2.48402

--Link1--
%chk=JID_6246.chk
%mem=8GB
%nprocshared=4
# B3LYP/6-311++G(d,p) empiricaldispersion=gd3bj scf=xqc pop=npa geom=check

CID_82767319_JID_6246_Energie_neutraal

0 1

--Link1--
%chk=JID_6246.chk
%mem=8GB
%nprocshared=4
# B3LYP/6-311++G(d,p) empiricaldispersion=gd3bj scf=xqc pop=npa geom=check

CID_82767319_JID_6246_Energie_kation

1 2

--Link1--
%chk=JID_6246.chk
%mem=8GB
%nprocshared=4
# B3LYP/6-311++G(d,p) empiricaldispersion=gd3bj scf=xqc pop=npa geom=check

CID_82767319_JID_6246_Energie_anion

-1 2
