%chk=JID_4326.chk
%mem=8GB
%nprocshared=4
# opt freq B3LYP/6-31G(d) empiricaldispersion=gd3bj scf=xqc

CID_105320410_JID_4326_neutraal

0 1
C          1.05366       -0.05835        0.06095
C          0.90985        0.87249       -1.13440
C          1.56724        0.34214       -2.38982
C          0.82416       -0.00396       -3.45633
C          3.08165        0.17614       -2.41559
C          3.88589        1.46431       -2.74414
C          3.92255        2.45727       -1.58817
C          3.40673        3.74889       -1.54944
C          3.63988        4.36600       -0.27656
C          4.32099        3.54930        0.59438
S          4.69247        2.04137       -0.10420
C          2.69481        4.42047       -2.67774
N          5.26488        1.06844       -3.15411
N          5.90407        2.13869       -3.90416
H          0.67251       -1.05909       -0.16803
H          0.48452        0.33298        0.91062
H          2.09591       -0.15287        0.37932
H         -0.16214        1.02981       -1.31113
H          1.30971        1.85774       -0.88305
H          1.27571       -0.39786       -4.36242
H         -0.25770        0.09232       -3.45388
H          3.42239       -0.28269       -1.48041
H          3.31641       -0.57260       -3.18744
H          3.39768        1.93132       -3.61034
H          3.32381        5.36889       -0.01544
H          4.62448        3.77055        1.60813
H          2.37001        5.42816       -2.39904
H          3.35321        4.50695       -3.54800
H          1.80655        3.84829       -2.96446
H          5.77898        0.86850       -2.28775
H          6.87354        1.89357       -4.12514
H          5.45156        2.26317       -4.81438

--Link1--
%chk=JID_4326.chk
%mem=8GB
%nprocshared=4
# B3LYP/6-311++G(d,p) empiricaldispersion=gd3bj scf=xqc pop=npa geom=check

CID_105320410_JID_4326_Energie_neutraal

0 1

--Link1--
%chk=JID_4326.chk
%mem=8GB
%nprocshared=4
# B3LYP/6-311++G(d,p) empiricaldispersion=gd3bj scf=xqc pop=npa geom=check

CID_105320410_JID_4326_Energie_kation

1 2

--Link1--
%chk=JID_4326.chk
%mem=8GB
%nprocshared=4
# B3LYP/6-311++G(d,p) empiricaldispersion=gd3bj scf=xqc pop=npa geom=check

CID_105320410_JID_4326_Energie_anion

-1 2
