%chk=JID_3671.chk
%mem=8GB
%nprocshared=4
# opt freq B3LYP/6-31G(d) empiricaldispersion=gd3bj scf=xqc

CID_141889244_JID_3671_neutraal

0 1
C          2.42200        0.71700       -0.36600
C          1.29630        1.44524        0.38075
C         -0.04200        0.75914        0.26177
C         -0.10228       -0.62731        0.05190
C          1.13401       -1.40051       -0.11146
C          2.30416       -0.77887       -0.31367
C         -1.34798       -1.26843        0.01524
C         -2.55107       -0.55964        0.18255
C         -2.46048        0.82248        0.40910
C         -1.22654        1.47736        0.44976
C         -3.87993       -1.27689        0.16138
C         -5.04821       -0.72512       -0.62200
C         -4.33953       -1.95087       -1.11155
H          3.38501        1.02681        0.05601
H          2.42644        1.02006       -1.42053
H          1.23193        2.47392        0.00607
H          1.54792        1.50248        1.44773
H          1.07292       -2.48393       -0.09620
H          3.20580       -1.36347       -0.47271
H         -1.39573       -2.34363       -0.14583
H         -3.36872        1.40091        0.56460
H         -1.19750        2.54757        0.63881
H         -4.13482       -1.78865        1.08808
H         -6.03905       -0.84490       -0.19856
H         -4.92062        0.18824       -1.19158
H         -3.73093       -1.85505       -2.00409
H         -4.84879       -2.90350       -1.02416

--Link1--
%chk=JID_3671.chk
%mem=8GB
%nprocshared=4
# B3LYP/6-311++G(d,p) empiricaldispersion=gd3bj scf=xqc pop=npa geom=check

CID_141889244_JID_3671_Energie_neutraal

0 1

--Link1--
%chk=JID_3671.chk
%mem=8GB
%nprocshared=4
# B3LYP/6-311++G(d,p) empiricaldispersion=gd3bj scf=xqc pop=npa geom=check

CID_141889244_JID_3671_Energie_kation

1 2

--Link1--
%chk=JID_3671.chk
%mem=8GB
%nprocshared=4
# B3LYP/6-311++G(d,p) empiricaldispersion=gd3bj scf=xqc pop=npa geom=check

CID_141889244_JID_3671_Energie_anion

-1 2
