%chk=JID_5811.chk
%mem=8GB
%nprocshared=4
# opt freq B3LYP/6-31G(d) empiricaldispersion=gd3bj scf=xqc

CID_112568231_JID_5811_neutraal

0 1
C          1.06817        0.05909        0.04314
C          0.59920       -0.81005        1.19689
C          1.00592       -0.31395        2.59325
N          0.50172        0.97549        3.07219
C          1.30650        2.12589        2.67829
C          0.87205        3.37100        3.45052
C         -0.61164        3.65882        3.21253
C         -1.48706        2.44786        3.54732
C         -0.94187        1.16163        2.90867
C         -1.76777        2.31719        5.02988
O         -2.69691        2.85775        5.61235
O         -0.87455        1.60081        5.72634
C         -1.10291        4.90214        3.91121
O         -2.01863        5.60791        3.51899
O         -0.49070        5.16753        5.07658
H          0.50585        0.99510       -0.00692
H          0.90953       -0.46317       -0.90618
H          2.13466        0.28925        0.12726
H         -0.48719       -0.94213        1.13720
H          1.02964       -1.81088        1.06379
H          0.66312       -1.07219        3.31018
H          2.10056       -0.33666        2.67512
H          1.23256        2.32410        1.60477
H          2.36423        1.94347        2.90284
H          1.47528        4.22949        3.13026
H          1.07902        3.23017        4.51906
H         -0.71661        3.87041        2.13798
H         -2.48048        2.61220        3.10310
H         -1.47296        0.29878        3.33030
H         -1.18691        1.19603        1.83951
H         -1.17180        1.66679        6.65660
H         -0.98445        5.93662        5.43274

--Link1--
%chk=JID_5811.chk
%mem=8GB
%nprocshared=4
# B3LYP/6-311++G(d,p) empiricaldispersion=gd3bj scf=xqc pop=npa geom=check

CID_112568231_JID_5811_Energie_neutraal

0 1

--Link1--
%chk=JID_5811.chk
%mem=8GB
%nprocshared=4
# B3LYP/6-311++G(d,p) empiricaldispersion=gd3bj scf=xqc pop=npa geom=check

CID_112568231_JID_5811_Energie_kation

1 2

--Link1--
%chk=JID_5811.chk
%mem=8GB
%nprocshared=4
# B3LYP/6-311++G(d,p) empiricaldispersion=gd3bj scf=xqc pop=npa geom=check

CID_112568231_JID_5811_Energie_anion

-1 2
