%chk=JID_8914.chk
%mem=8GB
%nprocshared=4
# opt freq B3LYP/6-31G(d) empiricaldispersion=gd3bj scf=xqc

CID_43732722_JID_8914_neutraal

0 1
C          0.97040       -0.08772       -0.03781
C          0.36211       -0.01721       -1.43210
C          0.71933       -1.21681       -2.33195
C          0.28169       -2.54680       -1.70451
C          0.07732       -1.09441       -3.73352
C          0.47938        0.14739       -4.56465
C          1.99796        0.28454       -4.79167
C          2.65813       -0.91972       -5.45301
N         -0.20444        0.07491       -5.86396
C         -0.75913        1.19785       -6.48088
C         -1.67135        0.99153       -7.53199
C         -2.19269        2.08112       -8.21158
C         -1.81639        3.36858       -7.88005
C         -0.90962        3.61800       -6.87638
C         -0.36847        2.52170       -6.19164
O         -2.42947        4.33500       -8.63244
C         -3.03604        3.58761       -9.71342
C         -3.21120        2.13035       -9.28234
H          0.53165       -0.89713        0.55275
H          0.78324        0.84770        0.49966
H          2.05331       -0.23823       -0.08825
H         -0.72722        0.07302       -1.34229
H          0.71980        0.90859       -1.89550
H          1.80938       -1.25652       -2.44368
H         -0.79107       -2.54715       -1.48388
H          0.48865       -3.38335       -2.38089
H          0.82327       -2.74712       -0.77505
H          0.30425       -2.00173       -4.30960
H         -1.01623       -1.09199       -3.61913
H          0.12534        1.02648       -4.01542
H          2.19802        1.16291       -5.41696
H          2.49639        0.47729       -3.83473
H          2.20082       -1.14603       -6.42091
H          3.71958       -0.71335       -5.62557
H          2.59581       -1.81116       -4.82251
H         -0.77603       -0.75664       -5.98528
H         -1.97540       -0.01257       -7.81032
H         -0.61204        4.63159       -6.63421
H          0.37147        2.72769       -5.42482
H         -3.99428        4.04694       -9.97763
H         -2.37325        3.66432      -10.58499
H         -3.02362        1.43666      -10.10572
H         -4.20884        1.95907       -8.86555

--Link1--
%chk=JID_8914.chk
%mem=8GB
%nprocshared=4
# B3LYP/6-311++G(d,p) empiricaldispersion=gd3bj scf=xqc pop=npa geom=check

CID_43732722_JID_8914_Energie_neutraal

0 1

--Link1--
%chk=JID_8914.chk
%mem=8GB
%nprocshared=4
# B3LYP/6-311++G(d,p) empiricaldispersion=gd3bj scf=xqc pop=npa geom=check

CID_43732722_JID_8914_Energie_kation

1 2

--Link1--
%chk=JID_8914.chk
%mem=8GB
%nprocshared=4
# B3LYP/6-311++G(d,p) empiricaldispersion=gd3bj scf=xqc pop=npa geom=check

CID_43732722_JID_8914_Energie_anion

-1 2
