%chk=JID_5653.chk
%mem=8GB
%nprocshared=4
# opt freq B3LYP/6-31G(d) empiricaldispersion=gd3bj scf=xqc

CID_77029022_JID_5653_neutraal

0 1
C          1.08206       -0.04238        0.03835
C          0.89646       -1.04427       -1.09418
C          0.59641       -2.45743       -0.58038
C         -0.67578       -2.62241        0.30762
N         -1.88124       -2.18762        0.05211
O         -1.97215       -1.52627       -1.16855
N         -0.53563       -3.40095        1.43605
N          0.50832       -3.41697       -1.70861
C          1.66125       -4.33553       -1.75164
C          1.68027       -5.28725       -0.54452
O          0.66142       -5.59823        0.07857
N          2.88802       -5.79150       -0.13974
C          4.17136       -5.44575       -0.64818
C          4.85092       -4.17421       -0.21697
C          5.37538       -5.49725        0.25357
H          0.16763        0.06693        0.62912
H          1.33844        0.94132       -0.36778
H          1.89109       -0.35255        0.70741
H          0.12343       -0.67780       -1.77589
H          1.82499       -1.06725       -1.67977
H          1.43864       -2.72768        0.07300
H         -2.91771       -1.29546       -1.21252
H         -0.00660       -4.25695        1.24538
H         -1.44909       -3.64685        1.80419
H         -0.34338       -3.97281       -1.59082
H          1.58360       -4.95413       -2.65217
H          2.58374       -3.75437       -1.82647
H          2.82964       -6.41380        0.65904
H          4.32922       -5.77395       -1.67339
H          5.42767       -3.63079       -0.95664
H          4.35259       -3.53949        0.50744
H          5.23783       -5.74930        1.29881
H          6.31030       -5.85034       -0.16637

--Link1--
%chk=JID_5653.chk
%mem=8GB
%nprocshared=4
# B3LYP/6-311++G(d,p) empiricaldispersion=gd3bj scf=xqc pop=npa geom=check

CID_77029022_JID_5653_Energie_neutraal

0 1

--Link1--
%chk=JID_5653.chk
%mem=8GB
%nprocshared=4
# B3LYP/6-311++G(d,p) empiricaldispersion=gd3bj scf=xqc pop=npa geom=check

CID_77029022_JID_5653_Energie_kation

1 2

--Link1--
%chk=JID_5653.chk
%mem=8GB
%nprocshared=4
# B3LYP/6-311++G(d,p) empiricaldispersion=gd3bj scf=xqc pop=npa geom=check

CID_77029022_JID_5653_Energie_anion

-1 2
