%chk=JID_4072.chk
%mem=8GB
%nprocshared=4
# opt freq B3LYP/6-31G(d) empiricaldispersion=gd3bj scf=xqc

CID_133098361_JID_4072_neutraal

0 1
C          1.06316        0.07386        0.02356
C          0.92697       -1.33882       -0.51556
O          1.36360       -2.29071        0.46539
C          2.70540       -2.51352        0.52281
O          3.53570       -2.01195       -0.22520
C          3.05147       -3.50496        1.60826
C          2.47094       -3.17632        2.95684
C          1.69856       -4.09870        3.64824
N          1.16451       -3.87977        4.87007
C          1.39559       -2.68718        5.44526
C          2.14409       -1.67985        4.83598
C          2.70087       -1.94738        3.57941
C          2.35923       -0.34940        5.49239
N          0.81363       -2.51024        6.69898
H          0.52015        0.17823        0.96871
H          0.66988        0.80114       -0.69228
H          2.10981        0.31862        0.22973
H         -0.12683       -1.55320       -0.72152
H          1.47190       -1.46466       -1.45809
H          2.72521       -4.49370        1.26462
H          4.14320       -3.54555        1.70463
H          1.47675       -5.07851        3.23317
H          3.30334       -1.18881        3.08336
H          1.40048        0.10037        5.77083
H          2.98054       -0.46344        6.38621
H          2.86351        0.35237        4.81950
H          0.36462       -3.39340        6.93005
H          1.50791       -2.25432        7.39031

--Link1--
%chk=JID_4072.chk
%mem=8GB
%nprocshared=4
# B3LYP/6-311++G(d,p) empiricaldispersion=gd3bj scf=xqc pop=npa geom=check

CID_133098361_JID_4072_Energie_neutraal

0 1

--Link1--
%chk=JID_4072.chk
%mem=8GB
%nprocshared=4
# B3LYP/6-311++G(d,p) empiricaldispersion=gd3bj scf=xqc pop=npa geom=check

CID_133098361_JID_4072_Energie_kation

1 2

--Link1--
%chk=JID_4072.chk
%mem=8GB
%nprocshared=4
# B3LYP/6-311++G(d,p) empiricaldispersion=gd3bj scf=xqc pop=npa geom=check

CID_133098361_JID_4072_Energie_anion

-1 2
