%chk=JID_5042.chk
%mem=8GB
%nprocshared=4
# opt freq B3LYP/6-31G(d) empiricaldispersion=gd3bj scf=xqc

CID_130013671_JID_5042_neutraal

0 1
C          1.20300       -1.21700       -0.47600
C          2.09272        0.02320       -0.30871
C          1.36235        1.36175       -0.13278
N          0.31039        1.55537       -1.14706
C         -1.01763        1.96422       -0.65455
C         -1.67944        0.88937        0.21765
C         -1.74888       -0.48400       -0.46085
N         -1.18322       -1.59350        0.31588
C          0.22791       -1.44871        0.68584
C          0.77194        2.27870       -2.26606
C          0.65200        3.66533       -2.38303
C          1.15057        4.29010       -3.51712
N          1.75374        3.63998       -4.53307
C          1.85985        2.30143       -4.40513
C          1.39560        1.59136       -3.30918
H          1.86192       -2.09257       -0.55020
H          0.69329       -1.17439       -1.44354
H          2.75053       -0.12511        0.55708
H          2.75641        0.08467       -1.17950
H          2.09643        2.17913       -0.15732
H          0.93736        1.40375        0.87580
H         -1.68533        2.15749       -1.50507
H         -0.94457        2.89351       -0.07570
H         -2.70162        1.21952        0.44557
H         -1.18283        0.83990        1.19164
H         -1.32964       -0.46989       -1.47173
H         -2.80838       -0.72585       -0.61530
H         -1.73324       -1.72448        1.16421
H          0.51431       -2.39171        1.16894
H          0.34266       -0.69396        1.46964
H          0.19657        4.26493       -1.60501
H          1.07715        5.36702       -3.63721
H          2.34170        1.79232       -5.23448
H          1.50059        0.51300       -3.27770

--Link1--
%chk=JID_5042.chk
%mem=8GB
%nprocshared=4
# B3LYP/6-311++G(d,p) empiricaldispersion=gd3bj scf=xqc pop=npa geom=check

CID_130013671_JID_5042_Energie_neutraal

0 1

--Link1--
%chk=JID_5042.chk
%mem=8GB
%nprocshared=4
# B3LYP/6-311++G(d,p) empiricaldispersion=gd3bj scf=xqc pop=npa geom=check

CID_130013671_JID_5042_Energie_kation

1 2

--Link1--
%chk=JID_5042.chk
%mem=8GB
%nprocshared=4
# B3LYP/6-311++G(d,p) empiricaldispersion=gd3bj scf=xqc pop=npa geom=check

CID_130013671_JID_5042_Energie_anion

-1 2
