%chk=JID_595.chk
%mem=8GB
%nprocshared=4
# opt freq B3LYP/6-31G(d) empiricaldispersion=gd3bj scf=xqc

CID_57074104_JID_595_neutraal

0 1
C          1.24100        1.32100        0.00100
C          2.44003        0.43167       -0.01167
C          2.34366       -0.90210       -0.01583
C          1.06142       -1.56113       -0.00855
C         -0.10772       -0.90156       -0.00638
C         -0.10046        0.59356       -0.00756
O         -1.12249        1.39669       -0.01151
S         -2.64770        0.84667       -0.01809
C         -2.52633       -0.87415       -0.00360
C         -1.38205       -1.56217       -0.00034
H          1.26103        1.95855        0.89182
H          1.25962        1.98346       -0.87143
H          3.42103        0.90445       -0.01661
H          3.24026       -1.52118       -0.02399
H          1.09629       -2.65030       -0.00598
H         -3.46913       -1.41479        0.00150
H         -1.40730       -2.65049        0.00698

--Link1--
%chk=JID_595.chk
%mem=8GB
%nprocshared=4
# B3LYP/6-311++G(d,p) empiricaldispersion=gd3bj scf=xqc pop=npa geom=check

CID_57074104_JID_595_Energie_neutraal

0 1

--Link1--
%chk=JID_595.chk
%mem=8GB
%nprocshared=4
# B3LYP/6-311++G(d,p) empiricaldispersion=gd3bj scf=xqc pop=npa geom=check

CID_57074104_JID_595_Energie_kation

1 2

--Link1--
%chk=JID_595.chk
%mem=8GB
%nprocshared=4
# B3LYP/6-311++G(d,p) empiricaldispersion=gd3bj scf=xqc pop=npa geom=check

CID_57074104_JID_595_Energie_anion

-1 2
