%chk=JID_6390.chk
%mem=8GB
%nprocshared=4
# opt freq B3LYP/6-31G(d) empiricaldispersion=gd3bj scf=xqc

CID_117338982_JID_6390_neutraal

0 1
C          2.49200        0.00400       -0.01400
C          0.98689       -0.04265       -0.00252
C          0.27645       -1.25699        0.03447
C         -1.12418       -1.23220        0.03860
C         -1.81629       -0.01880        0.01113
C         -1.12875        1.19887       -0.01597
C          0.27045        1.17266       -0.02024
S         -2.12863        2.68273       -0.05330
C         -0.90999        4.02037        0.03779
C          0.94954       -2.54228        0.07533
C          0.85596       -3.52405       -0.89327
N          1.64552       -4.55952       -0.44390
N          2.25040       -4.30628        0.73592
C          1.81428       -3.08472        1.05161
C          1.86507       -5.83096       -1.08961
N          0.17134       -3.56261       -2.06084
H          2.88798       -0.27511        0.96711
H          2.89602       -0.66566       -0.78011
H          2.85861        1.00954       -0.24749
H         -1.68808       -2.16295        0.06871
H         -2.90438       -0.03777        0.01602
H          0.83791        2.09759       -0.04453
H         -0.31574        3.94451        0.95233
H         -0.25560        4.00960       -0.83796
H         -1.43859        4.97761        0.05386
H          2.14270       -2.63578        1.97978
H          0.90689       -6.35129       -1.16134
H          2.28169       -5.64786       -2.08316
H          2.56755       -6.42595       -0.50000
H         -0.24366       -2.70296       -2.41748
H          0.37804       -4.23533       -2.79259

--Link1--
%chk=JID_6390.chk
%mem=8GB
%nprocshared=4
# B3LYP/6-311++G(d,p) empiricaldispersion=gd3bj scf=xqc pop=npa geom=check

CID_117338982_JID_6390_Energie_neutraal

0 1

--Link1--
%chk=JID_6390.chk
%mem=8GB
%nprocshared=4
# B3LYP/6-311++G(d,p) empiricaldispersion=gd3bj scf=xqc pop=npa geom=check

CID_117338982_JID_6390_Energie_kation

1 2

--Link1--
%chk=JID_6390.chk
%mem=8GB
%nprocshared=4
# B3LYP/6-311++G(d,p) empiricaldispersion=gd3bj scf=xqc pop=npa geom=check

CID_117338982_JID_6390_Energie_anion

-1 2
