%chk=JID_10068.chk
%mem=8GB
%nprocshared=4
# opt freq B3LYP/6-31G(d) empiricaldispersion=gd3bj scf=xqc

CID_63798519_JID_10068_neutraal

0 1
C          2.19400       -0.06300        0.00100
C          0.75280       -0.02151       -0.33168
C         -0.24155       -0.98488       -0.41766
C         -1.41447       -0.27402       -0.81358
C         -1.06225        1.04970       -0.91261
O          0.25103        1.21075       -0.62452
C         -0.10515       -2.45534       -0.19270
N         -0.66412       -2.83541        1.09976
C         -2.06905       -3.21945        1.12895
C          0.19900       -2.90264        2.20098
O          1.36822       -2.52493        2.12162
C         -0.32619       -3.47291        3.42918
C         -0.60365       -4.79329        3.72952
C         -1.09534       -4.95086        5.05696
C         -1.15738       -3.74949        5.72992
S         -0.61533       -2.44288        4.76532
C         -0.39898       -5.86278        2.80297
C         -0.15503       -6.75030        1.87948
C          0.12936       -7.78496        0.80290
O         -1.02657       -7.94795       -0.00348
H          2.73583        0.74194       -0.50561
H          2.33622        0.05382        1.07946
H          2.64235       -1.01213       -0.30677
H         -2.39854       -0.67792       -1.00203
H         -1.59840        1.95224       -1.16962
H         -0.62899       -3.01122       -0.97961
H          0.94692       -2.75644       -0.24669
H         -2.16518       -4.21159        0.67835
H         -2.47417       -3.24332        2.14186
H         -2.66020       -2.50594        0.55038
H         -1.37812       -5.89598        5.50446
H         -1.48179       -3.57429        6.74677
H          0.95570       -7.45060        0.16960
H          0.39071       -8.74612        1.25488
H         -1.75186       -8.18872        0.59730

--Link1--
%chk=JID_10068.chk
%mem=8GB
%nprocshared=4
# B3LYP/6-311++G(d,p) empiricaldispersion=gd3bj scf=xqc pop=npa geom=check

CID_63798519_JID_10068_Energie_neutraal

0 1

--Link1--
%chk=JID_10068.chk
%mem=8GB
%nprocshared=4
# B3LYP/6-311++G(d,p) empiricaldispersion=gd3bj scf=xqc pop=npa geom=check

CID_63798519_JID_10068_Energie_kation

1 2

--Link1--
%chk=JID_10068.chk
%mem=8GB
%nprocshared=4
# B3LYP/6-311++G(d,p) empiricaldispersion=gd3bj scf=xqc pop=npa geom=check

CID_63798519_JID_10068_Energie_anion

-1 2
