%chk=JID_8991.chk
%mem=8GB
%nprocshared=4
# opt=(cartesian,calcfc,maxcycle=500) freq B3LYP/6-31G(d) empiricaldispersion=gd3bj scf=xqc

CID_79681734_JID_8991_neutraal

0 1
S       3.1373  -3.0091 1.2704
O       3.7050  0.2502  -0.2238
O       -1.3226 1.9979  1.4920
N       -2.1887 0.7525  -0.2666
N       1.1367  1.4648  -0.0298
N       2.8662  -2.2101 -1.2593
C       -3.3787 0.2840  0.3996
C       -4.5060 -0.0032 -0.5851
C       -3.1563 -1.0696 1.0622
C       -4.2267 -1.4124 -1.1051
C       -3.3255 -2.0821 -0.0673
C       1.2885  0.0158  -0.2251
C       -0.1221 1.9368  -0.6033
C       2.2790  2.1731  -0.6248
C       2.6142  -0.4430 0.3774
C       -1.2520 1.5770  0.3395
C       3.5822  1.6585  -0.0190
C       2.8695  -1.8810 0.0680
H       -3.6813 1.0351  1.1370
H       -4.5704 0.7274  -1.3977
H       -5.4667 -0.0018 -0.0553
H       -3.9311 -1.2423 1.8194
H       -2.1811 -1.1627 1.5508
H       -3.7138 -1.3709 -2.0728
H       -5.1575 -1.9695 -1.2529
H       -3.7509 -3.0222 0.2977
H       -2.3531 -2.3150 -0.5168
H       -2.0123 0.4145  -1.2082
H       1.2311  -0.2100 -1.2971
H       0.4731  -0.5302 0.2648
H       -0.1349 3.0330  -0.6645
H       -0.2847 1.5624  -1.6206
H       2.2026  3.2496  -0.4337
H       2.2950  2.0201  -1.7118
H       2.6305  -0.2653 1.4610
H       4.4355  2.1407  -0.5065
H       3.6449  1.8795  1.0535
H       2.7516  -1.5232 -1.9971
H       3.0243  -3.1670 -1.5575

--Link1--
%chk=JID_8991.chk
%mem=8GB
%nprocshared=4
# B3LYP/6-311++G(d,p) empiricaldispersion=gd3bj scf=xqc pop=npa geom=check

CID_79681734_JID_8991_Energie_neutraal

0 1

--Link1--
%chk=JID_8991.chk
%mem=8GB
%nprocshared=4
# B3LYP/6-311++G(d,p) empiricaldispersion=gd3bj scf=xqc pop=npa geom=check

CID_79681734_JID_8991_Energie_kation

1 2

--Link1--
%chk=JID_8991.chk
%mem=8GB
%nprocshared=4
# B3LYP/6-311++G(d,p) empiricaldispersion=gd3bj scf=xqc pop=npa geom=check

CID_79681734_JID_8991_Energie_anion

-1 2
