%chk=JID_2268.chk
%mem=8GB
%nprocshared=4
# opt freq B3LYP/6-31G(d) empiricaldispersion=gd3bj scf=xqc

CID_13611942_JID_2268_neutraal

0 1
C          0.96066        0.07682       -0.05050
C          0.43953       -0.51998       -1.34834
C          0.70663       -2.02260       -1.48324
C          0.08874       -2.91096       -0.39769
C         -1.40933       -2.82255       -0.33649
C         -2.22352       -3.83313       -0.66893
O         -3.62583       -3.86371       -0.61724
C         -4.39517       -2.72965       -0.68031
O         -4.00817       -1.59026       -0.91074
C         -5.86179       -3.07486       -0.48812
C         -6.39763       -3.80325       -1.71458
C         -6.08808       -3.87426        0.79101
H          0.41785       -0.31127        0.81628
H          0.83400        1.16421       -0.06003
H          2.02560       -0.13872        0.08163
H         -0.63200       -0.31159       -1.44226
H          0.92755       -0.00840       -2.18691
H          0.34221       -2.35101       -2.46517
H          1.79145       -2.18827       -1.48759
H          0.39674       -3.94721       -0.58724
H          0.49810       -2.65187        0.58523
H         -1.81915       -1.88095        0.01873
H         -1.87080       -4.80788       -0.98683
H         -6.39835       -2.12290       -0.38556
H         -5.90901       -4.77425       -1.85084
H         -7.47515       -3.97542       -1.62462
H         -6.22182       -3.21660       -2.62285
H         -5.64773       -3.36164        1.65306
H         -7.15868       -4.00254        0.98189
H         -5.63650       -4.87058        0.73233

--Link1--
%chk=JID_2268.chk
%mem=8GB
%nprocshared=4
# B3LYP/6-311++G(d,p) empiricaldispersion=gd3bj scf=xqc pop=npa geom=check

CID_13611942_JID_2268_Energie_neutraal

0 1

--Link1--
%chk=JID_2268.chk
%mem=8GB
%nprocshared=4
# B3LYP/6-311++G(d,p) empiricaldispersion=gd3bj scf=xqc pop=npa geom=check

CID_13611942_JID_2268_Energie_kation

1 2

--Link1--
%chk=JID_2268.chk
%mem=8GB
%nprocshared=4
# B3LYP/6-311++G(d,p) empiricaldispersion=gd3bj scf=xqc pop=npa geom=check

CID_13611942_JID_2268_Energie_anion

-1 2
