%chk=JID_9923.chk
%mem=8GB
%nprocshared=4
# opt freq B3LYP/6-31G(d) empiricaldispersion=gd3bj scf=xqc

CID_129645870_JID_9923_neutraal

0 1
C         -0.85100        2.41800        0.02700
C          0.70407        2.51072        0.15909
C          1.15746        1.09286        0.11417
C          0.06931        0.25785       -0.02734
C         -1.11935        0.95724       -0.08333
C         -2.33274        0.29841       -0.22505
C         -2.27558       -1.10479       -0.30804
C         -1.05407       -1.80668       -0.25114
C          0.15815       -1.10725       -0.10617
C          1.45213       -1.65648       -0.03366
C          2.58652       -0.81867        0.11787
C          2.44746        0.58707        0.18976
C          3.96931       -1.43312        0.19029
C          4.74219       -1.34595       -1.10501
C          4.52798       -2.28213       -2.12671
C          5.23495       -2.19517       -3.32724
C          6.15805       -1.16950       -3.52144
C          6.37451       -0.22903       -2.51638
C          5.67012       -0.31549       -1.31438
H         -1.20099        2.94324       -0.86744
H         -1.34530        2.83488        0.91035
H          0.99043        2.97752        1.10697
H          1.13506        3.07940       -0.67118
H         -3.27081        0.83927       -0.26984
H         -3.20209       -1.66464       -0.42034
H         -1.05620       -2.89089       -0.32018
H          1.57872       -2.73445       -0.09511
H          3.29920        1.24897        0.29531
H          4.53377       -0.94799        0.99796
H          3.89846       -2.48551        0.49625
H          3.80485       -3.08333       -1.99376
H          5.06151       -2.92568       -4.11291
H          6.70524       -1.10057       -4.45772
H          7.09000        0.57446       -2.66957
H          5.84804        0.42904       -0.54210

--Link1--
%chk=JID_9923.chk
%mem=8GB
%nprocshared=4
# B3LYP/6-311++G(d,p) empiricaldispersion=gd3bj scf=xqc pop=npa geom=check

CID_129645870_JID_9923_Energie_neutraal

0 1

--Link1--
%chk=JID_9923.chk
%mem=8GB
%nprocshared=4
# B3LYP/6-311++G(d,p) empiricaldispersion=gd3bj scf=xqc pop=npa geom=check

CID_129645870_JID_9923_Energie_kation

1 2

--Link1--
%chk=JID_9923.chk
%mem=8GB
%nprocshared=4
# B3LYP/6-311++G(d,p) empiricaldispersion=gd3bj scf=xqc pop=npa geom=check

CID_129645870_JID_9923_Energie_anion

-1 2
