%chk=JID_9790.chk
%mem=8GB
%nprocshared=4
# opt freq B3LYP/6-31G(d) empiricaldispersion=gd3bj scf=xqc

CID_80701622_JID_9790_neutraal

0 1
C          1.00875       -0.06617        0.07447
S          0.69408        1.71754       -0.03297
C          1.35458        2.25039        1.53601
C          2.62918        1.87844        1.96720
C          3.09828        2.29144        3.21646
C          2.31369        3.09841        4.04478
C          1.04634        3.48875        3.60253
C          0.57429        3.07490        2.35235
N          2.75722        3.39459        5.35205
C          2.29079        2.40568        6.34296
C          2.80088        1.00718        6.22898
C          4.03074        0.53740        6.64662
O          4.16427       -0.78731        6.38323
C          3.01583       -1.18823        5.77375
C          2.74744       -2.47971        5.32555
C          1.50632       -2.68463        4.71388
C          0.59349       -1.63772        4.56604
C          0.89249       -0.34872        5.03004
C          2.13507       -0.11997        5.65238
H          0.51096       -0.56449       -0.76186
H          0.60879       -0.47352        1.00730
H          2.07871       -0.27914        0.00995
H          3.27414        1.26275        1.34741
H          4.08264        1.97204        3.55070
H          0.40757        4.10443        4.22909
H         -0.41599        3.38789        2.02979
H          2.39482        4.30899        5.61678
H          2.58929        2.78632        7.32890
H          1.19253        2.39873        6.36447
H          4.88243        1.00472        7.12128
H          3.46967       -3.27776        5.44492
H          1.25080       -3.67586        4.34542
H         -0.36296       -1.82186        4.08135
H          0.17885        0.45856        4.89591

--Link1--
%chk=JID_9790.chk
%mem=8GB
%nprocshared=4
# B3LYP/6-311++G(d,p) empiricaldispersion=gd3bj scf=xqc pop=npa geom=check

CID_80701622_JID_9790_Energie_neutraal

0 1

--Link1--
%chk=JID_9790.chk
%mem=8GB
%nprocshared=4
# B3LYP/6-311++G(d,p) empiricaldispersion=gd3bj scf=xqc pop=npa geom=check

CID_80701622_JID_9790_Energie_kation

1 2

--Link1--
%chk=JID_9790.chk
%mem=8GB
%nprocshared=4
# B3LYP/6-311++G(d,p) empiricaldispersion=gd3bj scf=xqc pop=npa geom=check

CID_80701622_JID_9790_Energie_anion

-1 2
