%chk=JID_5481.chk
%mem=8GB
%nprocshared=4
# opt freq B3LYP/6-31G(d) empiricaldispersion=gd3bj scf=xqc

CID_79253933_JID_5481_neutraal

0 1
C          1.06137       -0.07305        0.02995
C          0.26816        1.18556       -0.29507
C          1.10931        2.48609       -0.38426
C          0.34789        3.53393       -1.22817
C         -0.88241        4.08594       -0.51067
C         -0.52790        4.65746        0.85744
C          0.26233        3.66884        1.71476
C          1.50606        3.14984        0.96864
N          2.29370        2.23454        1.79058
C          3.54444        2.78417        2.35510
C          3.28350        3.83942        3.45705
O          2.59659        3.28213        4.57308
C          4.40848        1.58661        2.86174
C          4.79005        0.64609        1.70730
C          5.69736        2.04019        3.55900
H          1.93440       -0.17051       -0.62260
H          0.43158       -0.95674       -0.11871
H          1.39416       -0.09085        1.06966
H         -0.20755        1.01016       -1.26878
H         -0.54916        1.28701        0.42586
H          2.03221        2.24786       -0.93159
H          1.02638        4.36478       -1.46204
H          0.04917        3.10383       -2.19159
H         -1.63404        3.29648       -0.39497
H         -1.34289        4.86845       -1.12471
H         -1.44334        4.95203        1.38294
H          0.06628        5.57019        0.72293
H         -0.38919        2.83871        2.01174
H          0.54817        4.17624        2.64165
H          2.12352        4.02254        0.71259
H          1.73701        1.76187        2.49786
H          4.10626        3.27540        1.54925
H          4.22238        4.26801        3.81988
H          2.69888        4.68169        3.07447
H          1.74047        2.96386        4.24285
H          3.82771        1.00368        3.58937
H          5.35763        1.17903        0.93653
H          5.40937       -0.18198        2.06898
H          3.90788        0.20493        1.23546
H          5.48278        2.54814        4.50406
H          6.33415        1.18201        3.80070
H          6.27423        2.72021        2.92329

--Link1--
%chk=JID_5481.chk
%mem=8GB
%nprocshared=4
# B3LYP/6-311++G(d,p) empiricaldispersion=gd3bj scf=xqc pop=npa geom=check

CID_79253933_JID_5481_Energie_neutraal

0 1

--Link1--
%chk=JID_5481.chk
%mem=8GB
%nprocshared=4
# B3LYP/6-311++G(d,p) empiricaldispersion=gd3bj scf=xqc pop=npa geom=check

CID_79253933_JID_5481_Energie_kation

1 2

--Link1--
%chk=JID_5481.chk
%mem=8GB
%nprocshared=4
# B3LYP/6-311++G(d,p) empiricaldispersion=gd3bj scf=xqc pop=npa geom=check

CID_79253933_JID_5481_Energie_anion

-1 2
