%chk=JID_6813.chk
%mem=8GB
%nprocshared=4
# opt freq B3LYP/6-31G(d) empiricaldispersion=gd3bj scf=xqc

CID_115825799_JID_6813_neutraal

0 1
C          0.99578       -0.04677        0.08829
C          1.18961       -0.50713        1.52895
C          1.53075        0.64772        2.49504
C          2.09611        0.10446        3.82163
C          1.02847       -0.49076        4.73544
C         -0.07813        0.52405        5.00794
C         -0.72581        0.98697        3.68385
C          0.34315        1.59877        2.76074
N         -1.81262        1.96838        3.91358
C         -2.76845        1.47091        4.95588
C         -2.07539        0.88054        6.20831
O         -1.05498       -0.07410        5.86995
C         -3.02987        0.21768        7.19516
C         -3.84491        0.54417        4.38489
O         -5.03438        0.60237        4.67310
O         -3.41827       -0.42482        3.55577
H          0.12658        0.60905       -0.01171
H          0.83454       -0.91232       -0.56247
H          1.87860        0.48857       -0.27508
H          0.29520       -1.04640        1.85823
H          2.01056       -1.23494        1.53380
H          2.32884        1.23762        2.02408
H          2.87376       -0.64368        3.62808
H          2.59004        0.92858        4.35317
H          0.60546       -1.40210        4.29505
H          1.48212       -0.80420        5.68357
H          0.36332        1.38211        5.53481
H         -1.15574        0.12066        3.17342
H          0.73872        2.51215        3.22693
H         -0.11276        1.91579        1.81602
H         -1.39190        2.82682        4.26918
H         -3.33077        2.35905        5.27701
H         -1.58228        1.70427        6.74346
H         -2.48787       -0.07662        8.10103
H         -3.84024        0.89398        7.48323
H         -3.45771       -0.70293        6.78459
H         -4.23488       -0.90566        3.31269

--Link1--
%chk=JID_6813.chk
%mem=8GB
%nprocshared=4
# B3LYP/6-311++G(d,p) empiricaldispersion=gd3bj scf=xqc pop=npa geom=check

CID_115825799_JID_6813_Energie_neutraal

0 1

--Link1--
%chk=JID_6813.chk
%mem=8GB
%nprocshared=4
# B3LYP/6-311++G(d,p) empiricaldispersion=gd3bj scf=xqc pop=npa geom=check

CID_115825799_JID_6813_Energie_kation

1 2

--Link1--
%chk=JID_6813.chk
%mem=8GB
%nprocshared=4
# B3LYP/6-311++G(d,p) empiricaldispersion=gd3bj scf=xqc pop=npa geom=check

CID_115825799_JID_6813_Energie_anion

-1 2
