%chk=JID_1577.chk
%mem=8GB
%nprocshared=4
# opt freq B3LYP/6-31G(d) empiricaldispersion=gd3bj scf=xqc

CID_118393311_JID_1577_neutraal

0 1
C          0.94778        0.04249        0.07395
C          0.33739        0.98120       -0.98164
C          0.98030        0.66655       -2.33765
C         -1.24229        1.02954       -0.93829
C         -1.94119       -0.35648       -0.93376
C         -1.91818       -1.09210       -2.27349
C         -2.14220       -0.18994       -3.44721
C         -2.11937        1.14708       -3.36559
C         -1.83642        1.89329       -2.09163
C         -1.61709        1.71425        0.33613
N         -1.90741        2.24678        1.32582
H          0.75427       -1.00861       -0.16299
H          0.55910        0.24789        1.07577
H          2.03520        0.17232        0.11652
H          0.68916        1.99256       -0.72528
H          0.77455       -0.35273       -2.66952
H          0.66107        1.36499       -3.11523
H          2.07059        0.76076       -2.26686
H         -1.54006       -1.00934       -0.14943
H         -2.99866       -0.21297       -0.66150
H         -0.97109       -1.62524       -2.40086
H         -2.70133       -1.85990       -2.26399
H         -2.34006       -0.66384       -4.40649
H         -2.31518        1.74194       -4.25534
H         -2.78815        2.34698       -1.78021
H         -1.16570        2.73449       -2.30936

--Link1--
%chk=JID_1577.chk
%mem=8GB
%nprocshared=4
# B3LYP/6-311++G(d,p) empiricaldispersion=gd3bj scf=xqc pop=npa geom=check

CID_118393311_JID_1577_Energie_neutraal

0 1

--Link1--
%chk=JID_1577.chk
%mem=8GB
%nprocshared=4
# B3LYP/6-311++G(d,p) empiricaldispersion=gd3bj scf=xqc pop=npa geom=check

CID_118393311_JID_1577_Energie_kation

1 2

--Link1--
%chk=JID_1577.chk
%mem=8GB
%nprocshared=4
# B3LYP/6-311++G(d,p) empiricaldispersion=gd3bj scf=xqc pop=npa geom=check

CID_118393311_JID_1577_Energie_anion

-1 2
