%chk=JID_8015.chk
%mem=8GB
%nprocshared=4
# opt freq B3LYP/6-31G(d) empiricaldispersion=gd3bj scf=xqc

CID_144276771_JID_8015_neutraal

0 1
C          0.91587        0.03350        0.04243
C          0.31531       -1.02670       -0.83935
C         -0.46355       -1.97743       -0.29067
C          0.62602       -1.10561       -2.26586
C          1.18339       -0.22924       -3.12829
C          1.59137        1.14914       -2.66897
O          2.78863        1.38258       -2.50390
N          0.59726        2.11393       -2.58255
C         -0.80848        1.89364       -2.89484
C          0.94423        3.43660       -2.09359
N          1.51328       -0.47172       -4.46333
C          0.99416       -1.35675       -5.34776
C         -0.13801       -2.14175       -5.37358
C         -0.08810       -2.80442       -6.61579
N          0.98129       -2.47232       -7.33483
N          1.62005       -1.59222       -6.54700
O         -0.92163       -3.68887       -7.19976
C         -2.05008       -4.02663       -6.40965
H          0.77971       -0.20000        1.10510
H          0.44236        1.00342       -0.12741
H          1.99534        0.11651       -0.11861
H         -0.89723       -2.78456       -0.87339
H         -0.69334       -1.97733        0.77116
H          0.39537       -2.08511       -2.68226
H         -1.37080        1.86154       -1.95712
H         -1.17002        2.72741       -3.50452
H         -0.98074        0.96962       -3.44819
H          2.00391        3.52003       -1.83958
H          0.70712        4.17182       -2.86817
H          0.35147        3.64661       -1.19821
H          2.26170        0.16189       -4.75625
H         -0.90094       -2.20655       -4.61475
H          2.48841       -1.19346       -6.88197
H         -1.74889       -4.50209       -5.46969
H         -2.67687       -3.14881       -6.21768
H         -2.65086       -4.74867       -6.97113

--Link1--
%chk=JID_8015.chk
%mem=8GB
%nprocshared=4
# B3LYP/6-311++G(d,p) empiricaldispersion=gd3bj scf=xqc pop=npa geom=check

CID_144276771_JID_8015_Energie_neutraal

0 1

--Link1--
%chk=JID_8015.chk
%mem=8GB
%nprocshared=4
# B3LYP/6-311++G(d,p) empiricaldispersion=gd3bj scf=xqc pop=npa geom=check

CID_144276771_JID_8015_Energie_kation

1 2

--Link1--
%chk=JID_8015.chk
%mem=8GB
%nprocshared=4
# B3LYP/6-311++G(d,p) empiricaldispersion=gd3bj scf=xqc pop=npa geom=check

CID_144276771_JID_8015_Energie_anion

-1 2
