%chk=JID_5179.chk
%mem=8GB
%nprocshared=4
# opt freq B3LYP/6-31G(d) empiricaldispersion=gd3bj scf=xqc

CID_85742267_JID_5179_neutraal

0 1
C          1.85400        1.50000       -0.02200
C          0.58648        0.69199       -0.07663
C          0.60433       -0.71259        0.01954
C         -0.60906       -1.42264       -0.03398
C         -1.83944       -0.76216       -0.16451
C         -1.84070        0.63389       -0.25260
C         -0.64344        1.35241       -0.20551
C         -3.10520       -1.50309       -0.23398
C         -4.15005       -1.34210       -1.12622
C         -5.24704       -2.23444       -0.88569
C         -4.98459       -3.04227        0.20397
S         -3.46312       -2.72802        0.91080
C         -6.49745       -2.29040       -1.70107
O         -6.61049       -3.52894       -2.39113
C          1.89466       -1.47427        0.15478
H          2.30806        1.42342        0.97093
H          2.56503        1.15044       -0.77725
H          1.66342        2.55978       -0.22239
H         -0.58912       -2.50992        0.01887
H         -2.77704        1.17903       -0.34585
H         -0.68032        2.43793       -0.26941
H         -4.12514       -0.61562       -1.93066
H         -5.62214       -3.81199        0.61893
H         -7.37635       -2.17680       -1.05810
H         -6.52124       -1.48525       -2.44283
H         -5.74791       -3.69068       -2.81054
H          1.71594       -2.54119        0.32577
H          2.48783       -1.37678       -0.75990
H          2.47247       -1.10217        1.00673

--Link1--
%chk=JID_5179.chk
%mem=8GB
%nprocshared=4
# B3LYP/6-311++G(d,p) empiricaldispersion=gd3bj scf=xqc pop=npa geom=check

CID_85742267_JID_5179_Energie_neutraal

0 1

--Link1--
%chk=JID_5179.chk
%mem=8GB
%nprocshared=4
# B3LYP/6-311++G(d,p) empiricaldispersion=gd3bj scf=xqc pop=npa geom=check

CID_85742267_JID_5179_Energie_kation

1 2

--Link1--
%chk=JID_5179.chk
%mem=8GB
%nprocshared=4
# B3LYP/6-311++G(d,p) empiricaldispersion=gd3bj scf=xqc pop=npa geom=check

CID_85742267_JID_5179_Energie_anion

-1 2
