%chk=JID_10208.chk
%mem=8GB
%nprocshared=4
# opt freq B3LYP/6-31G(d) empiricaldispersion=gd3bj scf=xqc

CID_63326652_JID_10208_neutraal

0 1
C          0.94741       -0.03596       -0.07708
C          0.34275        1.35339        0.02920
O          1.07090        2.22444       -0.84314
C          2.00092        3.05182       -0.28813
O          2.13575        3.24643        0.91441
C          2.86073        3.70857       -1.36438
O          2.64603        3.10098       -2.63915
C          3.77332        2.69367       -3.29519
C          4.59857        1.63564       -2.88123
C          5.64537        1.23403       -3.73575
C          5.83943        1.83054       -4.98907
C          5.00606        2.88133       -5.37610
C          3.97363        3.30033       -4.53856
C          6.94593        1.36331       -5.88658
C          4.41362        0.88354       -1.58462
N          5.29312        1.41543       -0.54637
C          4.96237        0.96370        0.80448
C          5.05380       -0.55182        1.06887
C          6.45782       -1.10397        0.82246
C          4.62678       -0.84443        2.51123
H          1.02520       -0.35113       -1.12262
H          0.34052       -0.76371        0.46911
H          1.95660       -0.04902        0.34305
H         -0.69369        1.33496       -0.32263
H          0.33425        1.70359        1.06660
H          2.54190        4.75341       -1.44127
H          3.90866        3.68885       -1.05009
H          6.29987        0.41953       -3.42917
H          5.13835        3.36677       -6.33984
H          3.30557        4.09368       -4.86436
H          6.71202        1.56916       -6.93652
H          7.88034        1.86858       -5.62619
H          7.08664        0.28096       -5.79455
H          3.36594        0.93358       -1.28645
H          4.62139       -0.18006       -1.75572
H          6.25935        1.18780       -0.77218
H          5.63726        1.48628        1.49438
H          3.95725        1.31525        1.06017
H          4.35486       -1.07938        0.40879
H          7.20152       -0.58674        1.43800
H          6.50147       -2.17095        1.06681
H          6.74879       -0.99748       -0.22700
H          3.60920       -0.48368        2.69668
H          4.63935       -1.92104        2.71104
H          5.29453       -0.35825        3.23088

--Link1--
%chk=JID_10208.chk
%mem=8GB
%nprocshared=4
# B3LYP/6-311++G(d,p) empiricaldispersion=gd3bj scf=xqc pop=npa geom=check

CID_63326652_JID_10208_Energie_neutraal

0 1

--Link1--
%chk=JID_10208.chk
%mem=8GB
%nprocshared=4
# B3LYP/6-311++G(d,p) empiricaldispersion=gd3bj scf=xqc pop=npa geom=check

CID_63326652_JID_10208_Energie_kation

1 2

--Link1--
%chk=JID_10208.chk
%mem=8GB
%nprocshared=4
# B3LYP/6-311++G(d,p) empiricaldispersion=gd3bj scf=xqc pop=npa geom=check

CID_63326652_JID_10208_Energie_anion

-1 2
