%chk=JID_7983.chk
%mem=8GB
%nprocshared=4
# opt freq B3LYP/6-31G(d) empiricaldispersion=gd3bj scf=xqc

CID_43298067_JID_7983_neutraal

0 1
C          0.98841       -0.08462        0.05201
C         -0.10797       -1.11805       -0.21782
C          0.15893       -2.38832        0.58812
C         -1.50613       -0.56859        0.10104
O         -1.85152        0.47530       -0.82349
C         -1.76021        1.74900       -0.37180
O         -1.44782        2.08091        0.76361
N         -2.02898        2.67243       -1.33448
C         -2.50810        2.39855       -2.67709
C         -4.03666        2.32444       -2.69904
C         -1.95610        3.43190       -3.64095
C         -2.37289        4.77031       -3.61987
C         -1.82689        5.70140       -4.51071
C         -0.82208        5.33225       -5.40632
C         -0.44641        3.99039       -5.46860
C         -0.98537        3.05458       -4.58018
N         -0.36976        6.23699       -6.37409
H          0.96492        0.25656        1.09242
H          0.87927        0.78856       -0.59840
H          1.97875       -0.51115       -0.14088
H         -0.06671       -1.36754       -1.28591
H          0.13245       -2.18960        1.66481
H         -0.59105       -3.15463        0.36530
H          1.14193       -2.80502        0.34389
H         -2.25338       -1.35806       -0.03878
H         -1.58419       -0.24369        1.14534
H         -1.96721        3.63017       -1.02026
H         -2.13864        1.41149       -2.98072
H         -4.49753        3.24600       -2.32637
H         -4.40792        2.14716       -3.71425
H         -4.39269        1.50802       -2.06078
H         -3.13259        5.10437       -2.91749
H         -2.19324        6.72446       -4.49396
H          0.27768        3.65849       -6.20787
H         -0.64502        2.02264       -4.63716
H          0.54152        6.00184       -6.75497
H         -0.42232        7.20709       -6.07988

--Link1--
%chk=JID_7983.chk
%mem=8GB
%nprocshared=4
# B3LYP/6-311++G(d,p) empiricaldispersion=gd3bj scf=xqc pop=npa geom=check

CID_43298067_JID_7983_Energie_neutraal

0 1

--Link1--
%chk=JID_7983.chk
%mem=8GB
%nprocshared=4
# B3LYP/6-311++G(d,p) empiricaldispersion=gd3bj scf=xqc pop=npa geom=check

CID_43298067_JID_7983_Energie_kation

1 2

--Link1--
%chk=JID_7983.chk
%mem=8GB
%nprocshared=4
# B3LYP/6-311++G(d,p) empiricaldispersion=gd3bj scf=xqc pop=npa geom=check

CID_43298067_JID_7983_Energie_anion

-1 2
