%chk=JID_3258.chk
%mem=8GB
%nprocshared=4
# opt freq B3LYP/6-31G(d) empiricaldispersion=gd3bj scf=xqc

CID_79950861_JID_3258_neutraal

0 1
C         -0.78300       -1.00900       -0.20000
C         -1.16970        0.25812        0.54338
S          0.19604        1.40940        0.24494
C          1.36653        0.12792       -0.31462
C          0.72750       -1.24367       -0.00216
C          1.02491       -1.86179        1.36691
C          0.78175       -3.22323        1.64926
C          1.14491       -3.73983        2.89689
C          1.63802       -2.88345        3.86218
N          1.82177       -1.56915        3.65829
C          1.52310       -1.09570        2.42591
N          0.42153       -4.13654        0.63945
O          1.15329       -2.13559       -1.05051
H         -1.00873       -0.89717       -1.27034
H         -1.39241       -1.85388        0.14045
H         -2.11301        0.67083        0.17526
H         -1.26489        0.08059        1.61878
H          2.35188        0.26326        0.14140
H          1.49933        0.25870       -1.39505
H          1.05023       -4.79685        3.11850
H          1.91618       -3.24711        4.84687
H          1.71642       -0.03079        2.33355
H         -0.01137       -4.98706        0.99117
H         -0.12676       -3.73375       -0.12009
H          1.65330       -2.86730       -0.63692

--Link1--
%chk=JID_3258.chk
%mem=8GB
%nprocshared=4
# B3LYP/6-311++G(d,p) empiricaldispersion=gd3bj scf=xqc pop=npa geom=check

CID_79950861_JID_3258_Energie_neutraal

0 1

--Link1--
%chk=JID_3258.chk
%mem=8GB
%nprocshared=4
# B3LYP/6-311++G(d,p) empiricaldispersion=gd3bj scf=xqc pop=npa geom=check

CID_79950861_JID_3258_Energie_kation

1 2

--Link1--
%chk=JID_3258.chk
%mem=8GB
%nprocshared=4
# B3LYP/6-311++G(d,p) empiricaldispersion=gd3bj scf=xqc pop=npa geom=check

CID_79950861_JID_3258_Energie_anion

-1 2
