%chk=JID_3295.chk
%mem=8GB
%nprocshared=4
# opt freq B3LYP/6-31G(d) empiricaldispersion=gd3bj scf=xqc

CID_130651235_JID_3295_neutraal

0 1
C          0.93102        0.06822       -0.02427
C         -0.39547       -0.19411       -0.73742
C         -0.88988       -1.60659       -0.41662
C         -1.43004        0.86716       -0.33487
C         -2.60727        0.89067       -1.28977
O         -3.64717        0.29203       -1.02778
N         -2.44952        1.52365       -2.54938
C         -3.52417        1.50167       -3.56806
C         -2.94064        2.15377       -4.81705
C         -2.17849        3.36987       -4.32637
S         -1.39043        2.81598       -2.82434
O         -1.59593        3.81052       -1.79661
O         -0.08797        2.27473       -3.13539
H          0.81225        0.02859        1.06391
H          1.32494        1.05570       -0.28732
H          1.68148       -0.67611       -0.31095
H         -0.21337       -0.14311       -1.81748
H         -1.09386       -1.72383        0.65320
H         -1.80821       -1.83847       -0.96512
H         -0.13985       -2.35291       -0.69991
H         -1.81581        0.66484        0.67237
H         -0.97541        1.85933       -0.28205
H         -3.82805        0.47317       -3.78553
H         -4.39078        2.06125       -3.19921
H         -3.71428        2.41808       -5.54356
H         -2.24637        1.45666       -5.30272
H         -2.85884        4.18710       -4.06992
H         -1.42321        3.71256       -5.03611

--Link1--
%chk=JID_3295.chk
%mem=8GB
%nprocshared=4
# B3LYP/6-311++G(d,p) empiricaldispersion=gd3bj scf=xqc pop=npa geom=check

CID_130651235_JID_3295_Energie_neutraal

0 1

--Link1--
%chk=JID_3295.chk
%mem=8GB
%nprocshared=4
# B3LYP/6-311++G(d,p) empiricaldispersion=gd3bj scf=xqc pop=npa geom=check

CID_130651235_JID_3295_Energie_kation

1 2

--Link1--
%chk=JID_3295.chk
%mem=8GB
%nprocshared=4
# B3LYP/6-311++G(d,p) empiricaldispersion=gd3bj scf=xqc pop=npa geom=check

CID_130651235_JID_3295_Energie_anion

-1 2
