%chk=JID_9155.chk
%mem=8GB
%nprocshared=4
# opt freq B3LYP/6-31G(d) empiricaldispersion=gd3bj scf=xqc

CID_64343319_JID_9155_neutraal

0 1
C          1.04914       -0.05449        0.06794
C          0.92222        1.20673       -0.77615
C          1.50340        1.07858       -2.20228
C          0.96238       -0.14026       -2.99477
C         -0.54647       -0.15418       -3.28412
C         -0.94669        0.35632       -4.67762
N         -0.72286       -0.66374       -5.71404
C         -1.79626       -1.65420       -5.88399
C         -2.57986       -1.39296       -7.16274
C          0.43134       -0.70884       -6.48951
C          0.86232       -1.89034       -7.11763
C          2.02497       -1.94737       -7.89721
C          2.80310       -0.81173       -8.07582
C          2.42304        0.38317       -7.46994
C          1.24112        0.42122       -6.70461
C          3.22418        1.63396       -7.68098
C          1.32137        2.38754       -3.00561
C          1.99668        3.63818       -2.43053
N          3.44581        3.50735       -2.35980
H          0.40152       -0.85376       -0.30389
H          0.74968        0.15465        1.10017
H          2.08180       -0.41670        0.08217
H         -0.12992        1.51028       -0.81334
H          1.45310        2.00409       -0.24361
H          2.58109        0.89797       -2.09256
H          1.53274       -0.23343       -3.92406
H          1.20598       -1.04911       -2.43066
H         -0.90618       -1.18457       -3.16778
H         -1.08107        0.43446       -2.53186
H         -2.02048        0.58660       -4.65320
H         -0.47548        1.31474       -4.89799
H         -1.41669       -2.68048       -5.85737
H         -2.49807       -1.59565       -5.04213
H         -1.95239       -1.50427       -8.05241
H         -3.41222       -2.09857       -7.24733
H         -2.99145       -0.37800       -7.16857
H          0.31074       -2.81716       -7.00218
H          2.31814       -2.88585       -8.35966
H          3.70074       -0.86445       -8.68593
H          0.95806        1.38420       -6.29346
H          2.82989        2.19056       -8.53671
H          3.18818        2.27385       -6.79295
H          4.27714        1.39839       -7.86807
H          1.69860        2.23394       -4.02465
H          0.25094        2.60816       -3.09767
H          1.76088        4.48829       -3.08077
H          1.59605        3.88098       -1.44155
H          3.84476        4.36655       -1.98380
H          3.69665        2.77012       -1.70285

--Link1--
%chk=JID_9155.chk
%mem=8GB
%nprocshared=4
# B3LYP/6-311++G(d,p) empiricaldispersion=gd3bj scf=xqc pop=npa geom=check

CID_64343319_JID_9155_Energie_neutraal

0 1

--Link1--
%chk=JID_9155.chk
%mem=8GB
%nprocshared=4
# B3LYP/6-311++G(d,p) empiricaldispersion=gd3bj scf=xqc pop=npa geom=check

CID_64343319_JID_9155_Energie_kation

1 2

--Link1--
%chk=JID_9155.chk
%mem=8GB
%nprocshared=4
# B3LYP/6-311++G(d,p) empiricaldispersion=gd3bj scf=xqc pop=npa geom=check

CID_64343319_JID_9155_Energie_anion

-1 2
