%chk=JID_7718.chk
%mem=8GB
%nprocshared=4
# opt freq B3LYP/6-31G(d) empiricaldispersion=gd3bj scf=xqc

CID_23765911_JID_7718_neutraal

0 1
C         -1.51300        0.73700       -0.27100
C         -0.00566        0.93892       -0.15575
C          0.53346       -0.46330       -0.27518
O          1.70164       -0.77597       -0.43503
N         -0.51420       -1.34381       -0.06592
C         -1.74174       -0.66468        0.26309
C         -0.35031       -2.78481        0.04143
C         -0.10681       -3.35100        1.43780
O         -0.35791       -4.54056        1.66735
C          0.52902       -2.46619        2.50177
N          1.91538       -2.12132        2.17983
C          2.56666       -1.19253        3.00944
C          3.64715       -0.46946        2.48205
C          4.37366        0.43072        3.26641
C          4.04909        0.60128        4.60785
C          3.01027       -0.14015        5.16287
C          2.28607       -1.03996        4.37227
H         -2.08756        1.49603        0.26712
H         -1.80507        0.78224       -1.32778
H          0.27026        1.34068        0.82395
H          0.38028        1.57814       -0.95305
H         -1.87107       -0.66843        1.34951
H         -2.59417       -1.15466       -0.21554
H         -1.24816       -3.25294       -0.37538
H          0.51037       -3.07792       -0.56998
H         -0.08863       -1.57125        2.62891
H          0.49018       -3.03104        3.44084
H          2.05440       -1.85999        1.19600
H          3.92887       -0.59885        1.43874
H          5.19713        0.98718        2.82752
H          4.61583        1.29473        5.22285
H          2.76992       -0.03257        6.21716
H          1.50917       -1.62490        4.85363

--Link1--
%chk=JID_7718.chk
%mem=8GB
%nprocshared=4
# B3LYP/6-311++G(d,p) empiricaldispersion=gd3bj scf=xqc pop=npa geom=check

CID_23765911_JID_7718_Energie_neutraal

0 1

--Link1--
%chk=JID_7718.chk
%mem=8GB
%nprocshared=4
# B3LYP/6-311++G(d,p) empiricaldispersion=gd3bj scf=xqc pop=npa geom=check

CID_23765911_JID_7718_Energie_kation

1 2

--Link1--
%chk=JID_7718.chk
%mem=8GB
%nprocshared=4
# B3LYP/6-311++G(d,p) empiricaldispersion=gd3bj scf=xqc pop=npa geom=check

CID_23765911_JID_7718_Energie_anion

-1 2
