%chk=JID_6872.chk
%mem=8GB
%nprocshared=4
# opt freq B3LYP/6-31G(d) empiricaldispersion=gd3bj scf=xqc

CID_115373589_JID_6872_neutraal

0 1
C          2.50100       -0.11500        0.00200
C          1.00730       -0.13820        0.07584
C          0.26091        1.03783        0.20563
C         -1.13775        0.99265        0.32358
C         -1.71564       -0.27482        0.29833
N         -1.02753       -1.43594        0.17903
C          0.31374       -1.34008        0.07972
C         -1.97423        2.24840        0.45065
C         -1.54895        3.17570        1.59278
C         -2.08450        4.52697        1.14927
N         -1.84429        4.54167       -0.29346
C         -1.91671        3.16029       -0.80112
C         -2.53726        5.61746       -1.00607
C         -2.84767        5.55367       -2.47452
C         -3.96222        5.48701       -1.46661
O         -3.34847        1.88663        0.69663
H          2.92827       -0.25458        0.99976
H          2.86980       -0.90798       -0.65709
H          2.85976        0.83701       -0.40312
H          0.77847        1.99513        0.21014
H         -2.79216       -0.40820        0.37805
H          0.83166       -2.29216        0.00034
H         -1.97397        2.88030        2.55814
H         -0.46026        3.23800        1.70230
H         -1.56404        5.34721        1.65408
H         -3.15439        4.60799        1.37693
H         -1.02393        2.98259       -1.41031
H         -2.79324        2.97586       -1.43094
H         -2.24770        6.60676       -0.64852
H         -2.73951        6.46635       -3.05051
H         -2.60673        4.66048       -3.03631
H         -4.48207        4.54562       -1.34534
H         -4.60502        6.35459       -1.36553
H         -3.89298        2.67705        0.53797

--Link1--
%chk=JID_6872.chk
%mem=8GB
%nprocshared=4
# B3LYP/6-311++G(d,p) empiricaldispersion=gd3bj scf=xqc pop=npa geom=check

CID_115373589_JID_6872_Energie_neutraal

0 1

--Link1--
%chk=JID_6872.chk
%mem=8GB
%nprocshared=4
# B3LYP/6-311++G(d,p) empiricaldispersion=gd3bj scf=xqc pop=npa geom=check

CID_115373589_JID_6872_Energie_kation

1 2

--Link1--
%chk=JID_6872.chk
%mem=8GB
%nprocshared=4
# B3LYP/6-311++G(d,p) empiricaldispersion=gd3bj scf=xqc pop=npa geom=check

CID_115373589_JID_6872_Energie_anion

-1 2
