%chk=JID_9156.chk
%mem=8GB
%nprocshared=4
# opt freq B3LYP/6-31G(d) empiricaldispersion=gd3bj scf=xqc

CID_53562458_JID_9156_neutraal

0 1
C          1.07615        0.05991        0.02472
C          0.33937        1.34427        0.02861
C         -0.11175        2.07973        1.11822
N         -0.71038        3.16778        0.56727
C         -0.59678        3.05383       -0.77831
N          0.02908        1.97818       -1.16666
S         -1.30495        4.41056       -1.54004
C         -1.68183        4.97444        0.09809
N         -1.31735        4.24486        1.11677
S         -2.47462        6.50368        0.29270
C         -4.00367        5.86838        0.77364
N         -4.99135        5.59549       -0.04294
N         -6.01926        5.08158        0.70625
C         -5.63617        5.04246        1.96804
N         -4.35919        5.55468        2.05596
C         -3.57910        5.69176        3.25874
C         -6.44683        4.53679        3.12352
C         -7.34669        5.64592        3.66790
C         -7.28551        3.32425        2.71396
H          0.84241       -0.51705       -0.87537
H          0.80981       -0.54741        0.89535
H          2.15461        0.24330        0.04676
H         -0.05221        1.92515        2.18461
H         -4.22533        6.03949        4.06839
H         -3.15593        4.71470        3.50505
H         -2.78174        6.42369        3.11903
H         -5.77565        4.20907        3.92640
H         -8.05131        6.00091        2.90707
H         -7.92648        5.28982        4.52614
H         -6.75565        6.50746        3.99777
H         -6.64967        2.52269        2.32155
H         -7.83625        2.92620        3.57297
H         -8.01525        3.58055        1.93728

--Link1--
%chk=JID_9156.chk
%mem=8GB
%nprocshared=4
# B3LYP/6-311++G(d,p) empiricaldispersion=gd3bj scf=xqc pop=npa geom=check

CID_53562458_JID_9156_Energie_neutraal

0 1

--Link1--
%chk=JID_9156.chk
%mem=8GB
%nprocshared=4
# B3LYP/6-311++G(d,p) empiricaldispersion=gd3bj scf=xqc pop=npa geom=check

CID_53562458_JID_9156_Energie_kation

1 2

--Link1--
%chk=JID_9156.chk
%mem=8GB
%nprocshared=4
# B3LYP/6-311++G(d,p) empiricaldispersion=gd3bj scf=xqc pop=npa geom=check

CID_53562458_JID_9156_Energie_anion

-1 2
