%chk=JID_6481.chk
%mem=8GB
%nprocshared=4
# opt freq B3LYP/6-31G(d) empiricaldispersion=gd3bj scf=xqc

CID_81346727_JID_6481_neutraal

0 1
C          0.97136       -0.07692        0.05712
C          1.59665        1.18368       -0.52269
C          1.76339        1.14425       -2.05267
C          2.73762        0.04952       -2.51824
C          2.85354        0.01171       -4.04735
C          2.96724        1.37811       -4.66107
C          2.70067        2.50063       -3.98164
C          2.23427        2.52689       -2.55911
C          2.90296        3.74221       -4.77153
N          3.29044        3.80613       -6.00546
C          3.53864        2.63141       -6.65933
O          3.90403        2.58288       -7.82958
N          3.37240        1.45747       -5.96483
C          2.63865        5.05838       -4.05556
O          3.32874        5.49815       -3.15894
O          1.52250        5.65039       -4.49123
H          0.02036       -0.30623       -0.43366
H          0.77622        0.05968        1.12578
H          1.63430       -0.94039       -0.04751
H          0.95792        2.03486       -0.25549
H          2.56759        1.35479       -0.04206
H          0.77989        0.93660       -2.49808
H          3.72876        0.22978       -2.08148
H          2.41438       -0.93835       -2.17320
H          3.72424       -0.59864       -4.31615
H          1.96965       -0.48629       -4.46545
H          1.40213        3.23265       -2.44802
H          3.05750        2.89259       -1.93225
H          3.57860        0.62416       -6.50088
H          1.48407        6.49926       -4.00580

--Link1--
%chk=JID_6481.chk
%mem=8GB
%nprocshared=4
# B3LYP/6-311++G(d,p) empiricaldispersion=gd3bj scf=xqc pop=npa geom=check

CID_81346727_JID_6481_Energie_neutraal

0 1

--Link1--
%chk=JID_6481.chk
%mem=8GB
%nprocshared=4
# B3LYP/6-311++G(d,p) empiricaldispersion=gd3bj scf=xqc pop=npa geom=check

CID_81346727_JID_6481_Energie_kation

1 2

--Link1--
%chk=JID_6481.chk
%mem=8GB
%nprocshared=4
# B3LYP/6-311++G(d,p) empiricaldispersion=gd3bj scf=xqc pop=npa geom=check

CID_81346727_JID_6481_Energie_anion

-1 2
