%chk=JID_4931.chk
%mem=8GB
%nprocshared=4
# opt freq B3LYP/6-31G(d) empiricaldispersion=gd3bj scf=xqc

CID_33789004_JID_4931_neutraal

0 1
C          1.03421       -0.07318        0.05894
C         -0.26964       -0.07318        0.05894
C         -1.78964       -0.07318        0.05894
O         -2.34695       -0.17313        1.36931
C         -1.97133       -1.33700        2.10626
C         -2.39987       -2.64407        1.47930
C         -3.68728       -2.80503        0.94806
C         -4.07033       -4.02028        0.37366
C         -3.17713       -5.09765        0.34302
C         -1.89952       -4.95175        0.89396
C         -1.51556       -3.73270        1.45916
C         -3.62347       -6.36696       -0.28030
O         -4.70242       -6.56233       -0.80828
O         -2.69454       -7.33756       -0.21252
H          2.09984       -0.06891        0.05857
H         -2.13691        0.87324       -0.36867
H         -2.16600       -0.87438       -0.58485
H         -0.89221       -1.31849        2.29589
H         -2.45487       -1.26323        3.08743
H         -4.39321       -1.97638        0.96874
H         -5.06799       -4.12292       -0.04909
H         -1.19364       -5.77884        0.88742
H         -0.51680       -3.63860        1.88167
H         -3.12209       -8.10140       -0.65339

--Link1--
%chk=JID_4931.chk
%mem=8GB
%nprocshared=4
# B3LYP/6-311++G(d,p) empiricaldispersion=gd3bj scf=xqc pop=npa geom=check

CID_33789004_JID_4931_Energie_neutraal

0 1

--Link1--
%chk=JID_4931.chk
%mem=8GB
%nprocshared=4
# B3LYP/6-311++G(d,p) empiricaldispersion=gd3bj scf=xqc pop=npa geom=check

CID_33789004_JID_4931_Energie_kation

1 2

--Link1--
%chk=JID_4931.chk
%mem=8GB
%nprocshared=4
# B3LYP/6-311++G(d,p) empiricaldispersion=gd3bj scf=xqc pop=npa geom=check

CID_33789004_JID_4931_Energie_anion

-1 2
