%chk=JID_5766.chk
%mem=8GB
%nprocshared=4
# opt freq B3LYP/6-31G(d) empiricaldispersion=gd3bj scf=xqc

CID_116990912_JID_5766_neutraal

0 1
C          1.04630        0.08568       -0.02270
C          0.75023        0.79893       -1.34459
C          1.58602        0.18065       -2.47093
C         -0.76869        0.85877       -1.68289
C         -1.38964       -0.54516       -1.80543
O         -1.48512       -1.33241       -0.86606
N         -1.82732       -0.90385       -3.04727
C         -1.82215       -0.01755       -4.11925
C         -2.28053       -0.44744       -5.36543
C         -2.29700        0.44135       -6.44160
C         -1.86191        1.75506       -6.26852
C         -1.40835        2.18079       -5.01915
C         -1.38429        1.29335       -3.94342
O         -0.93254        1.79590       -2.75866
O          1.22821        2.15261       -1.17409
H          0.87874       -0.99321       -0.08345
H          0.42857        0.49279        0.78567
H          2.08867        0.24469        0.27864
H          1.30377       -0.85853       -2.66561
H          1.48919        0.75082       -3.40087
H          2.65227        0.20200       -2.21611
H         -1.28955        1.33186       -0.83948
H         -2.20737       -1.83624       -3.14376
H         -2.62773       -1.46629       -5.51286
H         -2.65293        0.11128       -7.41470
H         -1.87855        2.44925       -7.10532
H         -1.07483        3.20664       -4.88576
H          0.88141        2.66440       -1.92996

--Link1--
%chk=JID_5766.chk
%mem=8GB
%nprocshared=4
# B3LYP/6-311++G(d,p) empiricaldispersion=gd3bj scf=xqc pop=npa geom=check

CID_116990912_JID_5766_Energie_neutraal

0 1

--Link1--
%chk=JID_5766.chk
%mem=8GB
%nprocshared=4
# B3LYP/6-311++G(d,p) empiricaldispersion=gd3bj scf=xqc pop=npa geom=check

CID_116990912_JID_5766_Energie_kation

1 2

--Link1--
%chk=JID_5766.chk
%mem=8GB
%nprocshared=4
# B3LYP/6-311++G(d,p) empiricaldispersion=gd3bj scf=xqc pop=npa geom=check

CID_116990912_JID_5766_Energie_anion

-1 2
