%chk=JID_7161.chk
%mem=8GB
%nprocshared=4
# opt freq B3LYP/6-31G(d) empiricaldispersion=gd3bj scf=xqc

CID_105707084_JID_7161_neutraal

0 1
C          1.03415       -0.00750       -0.09369
C          0.23741        0.25830       -1.36238
C          1.03614       -0.00053       -2.63028
C          1.13849       -1.43921       -3.10475
C          0.26603       -0.47367       -3.85131
C          2.22761        0.92005       -2.86841
N          1.77405        2.23379       -3.33294
C          2.01315        3.26006       -2.40207
C          3.32365        3.68748       -2.09157
C          3.47181        4.63104       -1.07741
C          2.34248        5.20255       -0.49679
C          1.08961        4.78337       -0.93182
N          0.91158        3.82202       -1.87280
C         -0.16829        5.36187       -0.36211
O         -1.31280        5.04645       -0.63424
O          0.06482        6.33568        0.54496
N          4.46210        3.05247       -2.63297
H          1.45396       -1.01842       -0.09473
H          0.38829        0.09372        0.78435
H          1.85877        0.70213        0.02015
H         -0.65354       -0.38244       -1.34552
H         -0.13248        1.28865       -1.35568
H          2.05285       -1.77029       -3.58474
H          0.65073       -2.21541       -2.52455
H         -0.80938       -0.59262       -3.77474
H          0.59495       -0.14497       -4.83178
H          2.85377        0.95636       -1.97021
H          2.86249        0.50123       -3.65898
H          0.75646        2.23288       -3.41554
H          4.45998        4.93210       -0.74258
H          2.44922        5.95411        0.27794
H         -0.83979        6.60782        0.81059
H          4.22134        2.65443       -3.54265
H          5.27035        3.66332       -2.68928

--Link1--
%chk=JID_7161.chk
%mem=8GB
%nprocshared=4
# B3LYP/6-311++G(d,p) empiricaldispersion=gd3bj scf=xqc pop=npa geom=check

CID_105707084_JID_7161_Energie_neutraal

0 1

--Link1--
%chk=JID_7161.chk
%mem=8GB
%nprocshared=4
# B3LYP/6-311++G(d,p) empiricaldispersion=gd3bj scf=xqc pop=npa geom=check

CID_105707084_JID_7161_Energie_kation

1 2

--Link1--
%chk=JID_7161.chk
%mem=8GB
%nprocshared=4
# B3LYP/6-311++G(d,p) empiricaldispersion=gd3bj scf=xqc pop=npa geom=check

CID_105707084_JID_7161_Energie_anion

-1 2
