%chk=JID_2743.chk
%mem=8GB
%nprocshared=4
# opt freq B3LYP/6-31G(d) empiricaldispersion=gd3bj scf=xqc

CID_79197965_JID_2743_neutraal

0 1
C          1.04189        0.06365       -0.06475
C          0.45556       -1.29306       -0.49757
C          0.96203       -2.35651        0.48838
C         -1.05681       -1.19344       -0.53587
N         -1.77972       -0.09932       -0.70944
C         -3.09139       -0.49278       -0.67567
C         -3.18987       -1.84897       -0.47392
N         -1.88963       -2.27563       -0.37176
C         -4.34355       -2.76165       -0.35214
N         -4.05253       -4.01408       -1.04029
O          0.95652       -1.50411       -1.83129
C          0.70374       -2.75858       -2.43925
H          0.69243        0.36040        0.93050
H          0.77274        0.85751       -0.77234
H          2.13773        0.02731       -0.05077
H          0.65819       -2.12645        1.51596
H          0.58526       -3.35772        0.25464
H          2.05562       -2.42440        0.45646
H         -3.89261        0.22419       -0.79971
H         -1.61650       -3.24070       -0.24745
H         -4.54325       -2.96537        0.70522
H         -5.24329       -2.30706       -0.78058
H         -4.86557       -4.62348       -0.95409
H         -3.97221       -3.81223       -2.03806
H          1.20251       -3.56770       -1.89993
H         -0.36629       -2.95891       -2.52768
H          1.12049       -2.73012       -3.45038

--Link1--
%chk=JID_2743.chk
%mem=8GB
%nprocshared=4
# B3LYP/6-311++G(d,p) empiricaldispersion=gd3bj scf=xqc pop=npa geom=check

CID_79197965_JID_2743_Energie_neutraal

0 1

--Link1--
%chk=JID_2743.chk
%mem=8GB
%nprocshared=4
# B3LYP/6-311++G(d,p) empiricaldispersion=gd3bj scf=xqc pop=npa geom=check

CID_79197965_JID_2743_Energie_kation

1 2

--Link1--
%chk=JID_2743.chk
%mem=8GB
%nprocshared=4
# B3LYP/6-311++G(d,p) empiricaldispersion=gd3bj scf=xqc pop=npa geom=check

CID_79197965_JID_2743_Energie_anion

-1 2
