%chk=JID_5513.chk
%mem=8GB
%nprocshared=4
# opt freq B3LYP/6-31G(d) empiricaldispersion=gd3bj scf=xqc

CID_151352401_JID_5513_neutraal

0 1
C          0.97761        0.02045       -0.09529
C          0.43949       -1.39173       -0.06213
C          1.32979       -2.49763        0.01972
C          0.83144       -3.82243       -0.07568
C         -0.56037       -4.04688       -0.04421
C         -1.42811       -2.94157       -0.08103
C         -0.95526       -1.61733       -0.06200
C         -1.93355       -0.46916       -0.07188
O         -2.78861       -3.16332       -0.08706
N         -3.20410       -3.19092       -1.42909
N         -4.43373       -3.34586       -1.52778
N         -5.56142       -3.48628       -1.62318
C         -1.11696       -5.44787       -0.01715
N          1.71782       -4.91976        0.00873
C          2.81834       -2.25993        0.15629
H          1.13654        0.38520        0.92399
H          0.30078        0.70446       -0.61604
H          1.91851        0.07585       -0.65215
H         -2.02067       -0.06046       -1.08331
H         -2.93053       -0.76928        0.26535
H         -1.61462        0.32092        0.61592
H         -0.97092       -5.92647       -0.99081
H         -0.62410       -6.04297        0.75908
H         -2.18587       -5.47374        0.21448
H          2.63331       -4.72547       -0.38288
H          1.33875       -5.77646       -0.38028
H          3.30342       -3.04856        0.74026
H          3.28138       -2.20829       -0.83370
H          3.03345       -1.33657        0.70294

--Link1--
%chk=JID_5513.chk
%mem=8GB
%nprocshared=4
# B3LYP/6-311++G(d,p) empiricaldispersion=gd3bj scf=xqc pop=npa geom=check

CID_151352401_JID_5513_Energie_neutraal

0 1

--Link1--
%chk=JID_5513.chk
%mem=8GB
%nprocshared=4
# B3LYP/6-311++G(d,p) empiricaldispersion=gd3bj scf=xqc pop=npa geom=check

CID_151352401_JID_5513_Energie_kation

1 2

--Link1--
%chk=JID_5513.chk
%mem=8GB
%nprocshared=4
# B3LYP/6-311++G(d,p) empiricaldispersion=gd3bj scf=xqc pop=npa geom=check

CID_151352401_JID_5513_Energie_anion

-1 2
