%chk=JID_9430.chk
%mem=8GB
%nprocshared=4
# opt freq B3LYP/6-31G(d) empiricaldispersion=gd3bj scf=xqc

CID_81168798_JID_9430_neutraal

0 1
C          1.05961        0.06374        0.04882
C          0.94279       -1.44497       -0.12330
C          1.08739       -2.26595        1.17984
C          2.46203       -2.12353        1.86072
C          3.36627       -3.06761        1.08041
N          2.47479       -4.10056        0.58387
C          1.08236       -3.76935        0.85646
C          2.80434       -5.26754       -0.06964
O          1.93387       -6.07315       -0.40134
C          4.26968       -5.50944       -0.40099
C          4.57883       -5.54417       -1.91085
C          4.27285       -4.19295       -2.63611
C          5.61537       -4.33135       -3.37563
C          6.08416       -5.26102       -2.24210
C          3.99138       -6.76802       -2.63724
N          4.57322       -8.01317       -2.13921
C         -0.08532       -1.98790        2.09526
O         -1.23330       -2.36446        1.92389
O          0.21262       -1.20506        3.14868
H          0.32689        0.44486        0.76609
H          0.87678        0.56193       -0.90910
H          2.05869        0.35548        0.38361
H         -0.03595       -1.65555       -0.57469
H          1.69092       -1.76318       -0.86000
H          2.41094       -2.46685        2.90285
H          2.85427       -1.10356        1.88256
H          3.82891       -2.56537        0.22560
H          4.14731       -3.49989        1.71239
H          0.76499       -4.38012        1.71124
H          0.44842       -4.02797        0.00096
H          4.89757       -4.75343        0.07735
H          4.55620       -6.45442        0.07646
H          3.38512       -4.17462       -3.27492
H          4.24280       -3.31478       -1.98128
H          6.18710       -3.40728       -3.49481
H          5.53675       -4.82459       -4.35071
H          6.63449       -4.72983       -1.45583
H          6.69140       -6.11150       -2.56389
H          2.90468       -6.80356       -2.51867
H          4.17329       -6.71195       -3.71683
H          4.03120       -8.79682       -2.50296
H          5.51503       -8.12542       -2.50954
H         -0.64110       -1.10904        3.62256

--Link1--
%chk=JID_9430.chk
%mem=8GB
%nprocshared=4
# B3LYP/6-311++G(d,p) empiricaldispersion=gd3bj scf=xqc pop=npa geom=check

CID_81168798_JID_9430_Energie_neutraal

0 1

--Link1--
%chk=JID_9430.chk
%mem=8GB
%nprocshared=4
# B3LYP/6-311++G(d,p) empiricaldispersion=gd3bj scf=xqc pop=npa geom=check

CID_81168798_JID_9430_Energie_kation

1 2

--Link1--
%chk=JID_9430.chk
%mem=8GB
%nprocshared=4
# B3LYP/6-311++G(d,p) empiricaldispersion=gd3bj scf=xqc pop=npa geom=check

CID_81168798_JID_9430_Energie_anion

-1 2
