%chk=JID_5958.chk
%mem=8GB
%nprocshared=4
# opt freq B3LYP/6-31G(d) empiricaldispersion=gd3bj scf=xqc

CID_152804612_JID_5958_neutraal

0 1
C          0.65700       -1.32600       -0.17700
C          1.51833       -0.09863       -0.13829
C          1.00549        1.13876       -0.16372
C         -0.42601        1.37819       -0.22682
C         -1.27813        0.34538       -0.07236
C         -0.82820       -1.07938        0.18406
C         -1.76045       -2.07196       -0.54233
C         -1.46587       -3.55726       -0.28833
C         -1.55830       -3.99216        1.17039
O         -2.85445       -3.74744        1.69426
C         -0.92895        2.79131       -0.47874
C         -1.08856        3.64952        0.78989
C          0.20206        4.10374        1.47704
N          0.92953        5.08729        0.68318
O         -0.10125        3.44347       -1.44389
H          1.06949       -2.06844        0.51714
H          0.74487       -1.75496       -1.18325
H          2.59583       -0.23615       -0.12119
H          1.67199        1.99783       -0.16268
H         -2.35054        0.52884       -0.08895
H         -0.94476       -1.23209        1.26547
H         -2.80253       -1.86664       -0.26429
H         -1.70149       -1.89484       -1.62498
H         -2.19571       -4.13629       -0.86849
H         -0.47655       -3.81806       -0.67995
H         -1.37133       -5.06844        1.24193
H         -0.81763       -3.48932        1.79923
H         -2.94561       -2.78989        1.83302
H         -1.92310        2.72530       -0.94083
H         -1.66387        4.54737        0.52535
H         -1.69735        3.09987        1.51925
H         -0.04940        4.56554        2.43807
H          0.84626        3.24859        1.69870
H          1.90126        5.12519        0.98223
H          0.93405        4.77166       -0.29427
H         -0.03270        2.83204       -2.19863

--Link1--
%chk=JID_5958.chk
%mem=8GB
%nprocshared=4
# B3LYP/6-311++G(d,p) empiricaldispersion=gd3bj scf=xqc pop=npa geom=check

CID_152804612_JID_5958_Energie_neutraal

0 1

--Link1--
%chk=JID_5958.chk
%mem=8GB
%nprocshared=4
# B3LYP/6-311++G(d,p) empiricaldispersion=gd3bj scf=xqc pop=npa geom=check

CID_152804612_JID_5958_Energie_kation

1 2

--Link1--
%chk=JID_5958.chk
%mem=8GB
%nprocshared=4
# B3LYP/6-311++G(d,p) empiricaldispersion=gd3bj scf=xqc pop=npa geom=check

CID_152804612_JID_5958_Energie_anion

-1 2
