%chk=JID_7576.chk
%mem=8GB
%nprocshared=4
# opt freq B3LYP/6-31G(d) empiricaldispersion=gd3bj scf=xqc

CID_116227354_JID_7576_neutraal

0 1
C          1.06294       -0.05075        0.05885
C          1.06760       -1.57475       -0.01330
C          0.88457       -2.36765        1.29928
C          0.49499       -1.58772        2.56078
N         -0.86559       -1.06400        2.45959
C         -1.25774       -0.24661        3.61421
C         -0.46457        1.06369        3.75564
C         -1.35162        2.32404        3.94360
C         -0.62830        3.37278        4.81671
C          0.53221        4.03760        4.08453
C          0.04922        4.63235        2.76875
C         -0.72498        3.61280        1.93408
N         -1.81080        2.99160        2.70479
C         -2.63262        2.14623        1.84595
S         -0.01295       -2.16150       -1.38131
O          0.12287       -3.65345       -1.46825
C         -1.62910       -1.79084       -0.67652
H          0.09684        0.35685        0.36464
H          1.29743        0.38508       -0.91934
H          1.82283        0.30775        0.76071
H          2.06437       -1.84766       -0.38713
H          0.19421       -3.21026        1.17026
H          1.85222       -2.84001        1.52220
H          0.55581       -2.26698        3.42024
H          1.22915       -0.79473        2.73401
H         -1.50809       -1.85701        2.40682
H         -2.32854       -0.04190        3.51943
H         -1.15404       -0.83701        4.53366
H          0.19438        0.94581        4.62656
H          0.21310        1.20928        2.90880
H         -2.24126        2.03130        4.51772
H         -0.26710        2.91445        5.74504
H         -1.34840        4.14606        5.11785
H          1.32591        3.30596        3.89369
H          0.96687        4.82443        4.71106
H          0.90488        5.00732        2.19576
H         -0.59624        5.49519        2.97710
H         -0.03490        2.86083        1.53351
H         -1.14279        4.14224        1.06854
H         -2.06156        1.33958        1.37708
H         -3.46699        1.71273        2.40718
H         -3.08152        2.74311        1.04376
H         -1.81289       -2.40624        0.20451
H         -1.71234       -0.73055       -0.43502
H         -2.38703       -2.03404       -1.42614

--Link1--
%chk=JID_7576.chk
%mem=8GB
%nprocshared=4
# B3LYP/6-311++G(d,p) empiricaldispersion=gd3bj scf=xqc pop=npa geom=check

CID_116227354_JID_7576_Energie_neutraal

0 1

--Link1--
%chk=JID_7576.chk
%mem=8GB
%nprocshared=4
# B3LYP/6-311++G(d,p) empiricaldispersion=gd3bj scf=xqc pop=npa geom=check

CID_116227354_JID_7576_Energie_kation

1 2

--Link1--
%chk=JID_7576.chk
%mem=8GB
%nprocshared=4
# B3LYP/6-311++G(d,p) empiricaldispersion=gd3bj scf=xqc pop=npa geom=check

CID_116227354_JID_7576_Energie_anion

-1 2
