%chk=JID_10809.chk
%mem=8GB
%nprocshared=4
# opt freq B3LYP/6-31G(d) empiricaldispersion=gd3bj scf=xqc

CID_63033144_JID_10809_neutraal

0 1
C          1.07786        0.00481        0.06256
O          1.50938       -0.88974       -0.97158
C          1.83764       -0.17545       -2.09519
C          0.84877       -0.06794       -3.07817
C          1.05997        0.73602       -4.19720
C          2.25649        1.43819       -4.33275
C          3.25752        1.31385       -3.36532
C          3.07021        0.47175       -2.25748
N          4.13320        0.31051       -1.33187
C          4.36710       -0.74528       -0.48247
C          5.43515       -0.40500        0.32419
C          5.79832        0.88890       -0.12191
N          5.07883        1.26604       -1.19117
C          6.81240        1.81790        0.46799
C          7.11805        3.08105       -0.01015
C          8.08155        3.63502        0.86701
C          8.31041        2.67943        1.82628
O          7.54764        1.58309        1.59406
C          5.96062       -1.26505        1.36090
O          6.96157       -1.05199        2.03262
H          0.75433       -0.60381        0.91228
H          0.22326        0.60709       -0.26585
H          1.89025        0.65467        0.40275
H         -0.09666       -0.59075       -2.95774
H          0.28604        0.82678       -4.95538
H          2.41727        2.07548       -5.19920
H          4.19356        1.85215       -3.50531
H          3.76691       -1.64330       -0.52561
H          6.68001        3.54370       -0.88404
H          8.54556        4.60901        0.80971
H          8.94617        2.62598        2.69891
H          5.38798       -2.19631        1.51717

--Link1--
%chk=JID_10809.chk
%mem=8GB
%nprocshared=4
# B3LYP/6-311++G(d,p) empiricaldispersion=gd3bj scf=xqc pop=npa geom=check

CID_63033144_JID_10809_Energie_neutraal

0 1

--Link1--
%chk=JID_10809.chk
%mem=8GB
%nprocshared=4
# B3LYP/6-311++G(d,p) empiricaldispersion=gd3bj scf=xqc pop=npa geom=check

CID_63033144_JID_10809_Energie_kation

1 2

--Link1--
%chk=JID_10809.chk
%mem=8GB
%nprocshared=4
# B3LYP/6-311++G(d,p) empiricaldispersion=gd3bj scf=xqc pop=npa geom=check

CID_63033144_JID_10809_Energie_anion

-1 2
