%chk=JID_1371.chk
%mem=8GB
%nprocshared=4
# opt freq B3LYP/6-31G(d) empiricaldispersion=gd3bj scf=xqc

CID_102090118_JID_1371_neutraal

0 1
C          0.90948        0.01672        0.03908
C          0.33458       -0.29048       -1.33470
C          0.60398       -1.72183       -1.80492
C          0.05619       -2.83381       -0.90191
C         -1.45212       -2.78067       -0.66049
N         -2.21612       -2.89254       -1.88798
C         -2.61414       -4.03199       -2.52158
O         -3.20689       -4.05362       -3.58671
C         -2.27859       -5.31642       -1.88136
N         -3.28626       -5.89239       -1.27279
N         -4.14359       -6.40216       -0.71950
H          0.41147       -0.56339        0.82144
H          0.77204        1.07688        0.27506
H          1.98144       -0.20167        0.07424
H         -0.74114       -0.08380       -1.33631
H          0.78116        0.39947       -2.06106
H          0.19153       -1.83940       -2.81452
H          1.68788       -1.86294       -1.90276
H          0.31703       -3.79698       -1.35750
H          0.57022       -2.80618        0.06583
H         -1.74072       -3.59357        0.01394
H         -1.74386       -1.84227       -0.17950
H         -2.44044       -2.04377       -2.39507
H         -1.25767       -5.70349       -1.95127

--Link1--
%chk=JID_1371.chk
%mem=8GB
%nprocshared=4
# B3LYP/6-311++G(d,p) empiricaldispersion=gd3bj scf=xqc pop=npa geom=check

CID_102090118_JID_1371_Energie_neutraal

0 1

--Link1--
%chk=JID_1371.chk
%mem=8GB
%nprocshared=4
# B3LYP/6-311++G(d,p) empiricaldispersion=gd3bj scf=xqc pop=npa geom=check

CID_102090118_JID_1371_Energie_kation

1 2

--Link1--
%chk=JID_1371.chk
%mem=8GB
%nprocshared=4
# B3LYP/6-311++G(d,p) empiricaldispersion=gd3bj scf=xqc pop=npa geom=check

CID_102090118_JID_1371_Energie_anion

-1 2
