%chk=JID_10007.chk
%mem=8GB
%nprocshared=4
# opt freq B3LYP/6-31G(d) empiricaldispersion=gd3bj scf=xqc

CID_46915006_JID_10007_neutraal

0 1
C          0.91413        0.01945       -0.04742
S          0.64820       -0.12622       -1.82516
C          1.04918        1.50601       -2.31237
C          1.91766        1.94487       -3.30352
C          1.90549        3.37141       -3.25467
C          2.54716        4.41411       -3.95066
C          2.25860        5.74039       -3.59783
C          1.35056        6.03205       -2.57701
C          0.70230        5.01175       -1.87385
C          1.01226        3.70552       -2.24598
O          0.49869        2.58426       -1.67708
C          2.71153        1.06634       -4.14209
C          2.09397        0.20017       -5.05185
C          2.88234       -0.66309       -5.82363
C          4.27889       -0.65972       -5.70281
C          4.88881        0.21578       -4.80432
C          4.10870        1.07595       -4.02850
N          2.23836       -1.58574       -6.76566
O          1.01542       -1.48123       -6.93281
O          2.95834       -2.41315       -7.34367
H          0.73511       -0.95014        0.42498
H          0.22676        0.74873        0.39014
H          1.94387        0.32227        0.16244
H          3.25028        4.20062       -4.75038
H          2.74768        6.55383       -4.13013
H          1.14210        7.06981       -2.32427
H         -0.00468        5.21964       -1.07985
H          1.00892        0.19511       -5.14302
H          4.89942       -1.32921       -6.29531
H          5.97164        0.22337       -4.70055
H          4.59802        1.74267       -3.32013

--Link1--
%chk=JID_10007.chk
%mem=8GB
%nprocshared=4
# B3LYP/6-311++G(d,p) empiricaldispersion=gd3bj scf=xqc pop=npa geom=check

CID_46915006_JID_10007_Energie_neutraal

0 1

--Link1--
%chk=JID_10007.chk
%mem=8GB
%nprocshared=4
# B3LYP/6-311++G(d,p) empiricaldispersion=gd3bj scf=xqc pop=npa geom=check

CID_46915006_JID_10007_Energie_kation

1 2

--Link1--
%chk=JID_10007.chk
%mem=8GB
%nprocshared=4
# B3LYP/6-311++G(d,p) empiricaldispersion=gd3bj scf=xqc pop=npa geom=check

CID_46915006_JID_10007_Energie_anion

-1 2
