%chk=JID_4460.chk
%mem=8GB
%nprocshared=4
# opt freq B3LYP/6-31G(d) empiricaldispersion=gd3bj scf=xqc

CID_131592_JID_4460_neutraal

0 1
C          1.06136        0.05714        0.05450
C          0.47124        1.21697       -0.74701
C          0.88885        1.08074       -2.21474
C         -1.06476        1.26682       -0.64581
C         -1.62585        1.69279        0.71694
N         -1.25588        3.03800        1.14536
C         -1.79146        4.21085        0.63203
C         -1.17197        5.26658        1.27322
C         -0.27635        4.73040        2.21479
C         -0.35715        3.34906        2.15711
C          0.37386        2.43259        3.00818
O          1.21141        2.77332        3.84087
C         -2.83913        4.27974       -0.42339
O         -2.16653        4.31322       -1.67028
H          0.68237       -0.90601       -0.30445
H          0.82169        0.13481        1.11655
H          2.15302        0.04189       -0.03473
H          0.89513        2.15502       -0.37069
H          0.49227        0.16068       -2.65775
H          0.52057        1.92718       -2.80416
H          1.97978        1.06008       -2.30913
H         -1.44920        1.94045       -1.41742
H         -1.47318        0.27686       -0.88840
H         -2.72130        1.66168        0.69053
H         -1.33761        0.97936        1.49155
H         -1.36071        6.31720        1.08985
H          0.35744        5.28457        2.89784
H          0.14568        1.36273        2.90236
H         -3.52187        3.42736       -0.40840
H         -3.43828        5.19083       -0.32546
H         -1.48868        5.00784       -1.60236

--Link1--
%chk=JID_4460.chk
%mem=8GB
%nprocshared=4
# B3LYP/6-311++G(d,p) empiricaldispersion=gd3bj scf=xqc pop=npa geom=check

CID_131592_JID_4460_Energie_neutraal

0 1

--Link1--
%chk=JID_4460.chk
%mem=8GB
%nprocshared=4
# B3LYP/6-311++G(d,p) empiricaldispersion=gd3bj scf=xqc pop=npa geom=check

CID_131592_JID_4460_Energie_kation

1 2

--Link1--
%chk=JID_4460.chk
%mem=8GB
%nprocshared=4
# B3LYP/6-311++G(d,p) empiricaldispersion=gd3bj scf=xqc pop=npa geom=check

CID_131592_JID_4460_Energie_anion

-1 2
