%chk=JID_4046.chk
%mem=8GB
%nprocshared=4
# opt freq B3LYP/6-31G(d) empiricaldispersion=gd3bj scf=xqc

CID_79345746_JID_4046_neutraal

0 1
C          2.59200       -0.49000       -0.02200
C          1.16634       -0.08206       -0.00031
C         -0.01387       -0.80726       -0.01823
C         -1.03658        0.18928        0.01916
N         -0.51463        1.42506        0.06082
N          0.80473        1.23192        0.04782
C         -2.51657        0.08322        0.01375
N          0.01716       -2.19008       -0.06724
C         -0.97158       -3.12972       -0.07780
O         -0.69338       -4.32442       -0.14609
O         -2.23478       -2.65988       -0.02104
C         -3.29621       -3.63645        0.02186
C         -3.51168       -4.30112       -1.33902
O         -2.71470       -5.47353       -1.49140
H          2.82037       -1.12363        0.84095
H          2.81291       -1.05496       -0.93323
H          3.26233        0.37517        0.00875
H          1.40623        2.04882        0.07315
H         -2.86695       -0.42564       -0.88901
H         -2.87149       -0.44469        0.90365
H         -2.98747        1.07319        0.02250
H          0.93460       -2.61281       -0.10057
H         -3.09814       -4.36573        0.81573
H         -4.19657       -3.07608        0.29357
H         -4.55365       -4.62022       -1.43484
H         -3.27410       -3.61783       -2.16000
H         -1.82560       -5.28347       -1.12309

--Link1--
%chk=JID_4046.chk
%mem=8GB
%nprocshared=4
# B3LYP/6-311++G(d,p) empiricaldispersion=gd3bj scf=xqc pop=npa geom=check

CID_79345746_JID_4046_Energie_neutraal

0 1

--Link1--
%chk=JID_4046.chk
%mem=8GB
%nprocshared=4
# B3LYP/6-311++G(d,p) empiricaldispersion=gd3bj scf=xqc pop=npa geom=check

CID_79345746_JID_4046_Energie_kation

1 2

--Link1--
%chk=JID_4046.chk
%mem=8GB
%nprocshared=4
# B3LYP/6-311++G(d,p) empiricaldispersion=gd3bj scf=xqc pop=npa geom=check

CID_79345746_JID_4046_Energie_anion

-1 2
