%chk=JID_10557.chk
%mem=8GB
%nprocshared=4
# opt freq B3LYP/6-31G(d) empiricaldispersion=gd3bj scf=xqc

CID_61690234_JID_10557_neutraal

0 1
C         -2.38400        0.00700       -0.11600
N         -1.00953       -0.01781        0.38460
C         -0.30585       -1.21140       -0.10548
C          1.12110       -1.27304        0.44186
C          1.90191       -0.00930        0.09834
C          1.14175        1.23749        0.56434
C         -0.29813        1.21349        0.00255
N          1.85031        2.43962        0.14395
C          2.74675        3.20669        0.83074
O          3.32052        4.08843        0.17821
C          2.94031        3.05201        2.37574
C          3.76843        1.84583        2.78230
C          3.20579        0.69976        3.35751
C          4.00974       -0.39614        3.67626
C          5.38272       -0.35082        3.43836
C          5.96223        0.80069        2.90806
C          5.16180        1.90542        2.60561
C          5.73829        3.20001        2.10357
C          5.00096        4.39767        2.73539
N          3.53818        4.30397        2.91882
H         -2.42547        0.05773       -1.21005
H         -2.92805       -0.88680        0.20901
H         -2.92562        0.86843        0.29022
H         -0.83620       -2.11458        0.21982
H         -0.27934       -1.22581       -1.20312
H          1.63623       -2.14761        0.02869
H          1.09387       -1.40269        1.53115
H          2.05800        0.03548       -0.98786
H          2.89989       -0.05155        0.54638
H          1.07089        1.23743        1.65398
H         -0.27428        1.32580       -1.09044
H         -0.83424        2.08627        0.39762
H          1.86211        2.65054       -0.84728
H          1.94003        2.98222        2.81894
H          2.14044        0.64867        3.56656
H          3.56458       -1.28566        4.11445
H          6.00525       -1.20628        3.68683
H          7.03747        0.83936        2.75433
H          5.65671        3.22358        1.01120
H          6.80413        3.26975        2.35087
H          5.23651        5.29957        2.15741
H          5.42157        4.56786        3.73467
H          3.11008        5.08401        2.41631

--Link1--
%chk=JID_10557.chk
%mem=8GB
%nprocshared=4
# B3LYP/6-311++G(d,p) empiricaldispersion=gd3bj scf=xqc pop=npa geom=check

CID_61690234_JID_10557_Energie_neutraal

0 1

--Link1--
%chk=JID_10557.chk
%mem=8GB
%nprocshared=4
# B3LYP/6-311++G(d,p) empiricaldispersion=gd3bj scf=xqc pop=npa geom=check

CID_61690234_JID_10557_Energie_kation

1 2

--Link1--
%chk=JID_10557.chk
%mem=8GB
%nprocshared=4
# B3LYP/6-311++G(d,p) empiricaldispersion=gd3bj scf=xqc pop=npa geom=check

CID_61690234_JID_10557_Energie_anion

-1 2
