%chk=JID_5924.chk
%mem=8GB
%nprocshared=4
# opt freq B3LYP/6-31G(d) empiricaldispersion=gd3bj scf=xqc

CID_45097028_JID_5924_neutraal

0 1
C          1.00500       -0.04200       -0.09061
C          2.79820       -1.83132       -1.98614
C          2.16072       -0.83854       -2.72273
C          2.65296       -0.40458       -3.97890
C          3.66949       -1.50472       -3.96520
C          2.42550       -3.05464       -3.63595
C          1.60986       -3.52708       -4.72642
C          2.71419       -3.04035       -5.46131
C          3.98086       -3.86082       -5.64241
C          5.06740       -4.56461       -5.79776
C          6.33407       -5.38507       -5.97886
C          4.59493       -3.59309       -3.91932
O          5.83350       -6.69672       -5.88225
C          4.56237       -1.04447       -5.19895
C          4.91023       -1.19163       -2.74444
H          0.83714       -1.01474        0.38280
H          0.39603        0.20609       -0.95385
H          1.96642        0.45732        0.06171
H          1.26300       -0.36681       -2.39019
H          1.89594       -0.46513       -4.76373
H          3.03720        0.61205       -3.89291
H          2.84152       -3.92081       -3.08102
H          1.54652       -2.93478       -2.95795
H          1.42665       -4.60331       -4.75462
H          0.68780       -2.95366       -4.85999
H          2.32248       -3.38188       -6.45273
H          2.64380       -2.03029       -5.85781
H          6.47732       -4.84867       -6.93060
H          4.63012       -4.43152       -3.17062
H          5.54972       -3.08734       -3.66118
H          5.65815       -6.84828       -4.93766
H          5.03278       -0.08562       -4.91711
H          5.40470       -1.70097       -5.42138
H          4.02505       -0.78915       -6.11309
H          4.71277       -0.26152       -2.19592
H          5.02141       -2.01122       -2.01014
H          5.90680       -1.08920       -3.18849

--Link1--
%chk=JID_5924.chk
%mem=8GB
%nprocshared=4
# B3LYP/6-311++G(d,p) empiricaldispersion=gd3bj scf=xqc pop=npa geom=check

CID_45097028_JID_5924_Energie_neutraal

0 1

--Link1--
%chk=JID_5924.chk
%mem=8GB
%nprocshared=4
# B3LYP/6-311++G(d,p) empiricaldispersion=gd3bj scf=xqc pop=npa geom=check

CID_45097028_JID_5924_Energie_kation

1 2

--Link1--
%chk=JID_5924.chk
%mem=8GB
%nprocshared=4
# B3LYP/6-311++G(d,p) empiricaldispersion=gd3bj scf=xqc pop=npa geom=check

CID_45097028_JID_5924_Energie_anion

-1 2
