%chk=JID_2609.chk
%mem=8GB
%nprocshared=4
# opt freq B3LYP/6-31G(d) empiricaldispersion=gd3bj scf=xqc

CID_71695546_JID_2609_neutraal

0 1
C         -1.50500        0.02200       -0.20100
C         -0.72183        1.17242        0.42194
C          0.68818        1.26922       -0.16583
N          1.39828        0.00057       -0.02545
C          0.69903       -1.11189       -0.67194
C         -0.71154       -1.27628       -0.10274
C          2.83285        0.05748       -0.34258
C          3.32097       -0.06059       -1.80834
C          2.94879        1.09153       -2.75072
C          3.36402        2.49446       -2.29437
N          4.78874        2.58007       -1.96991
O          4.74909       -0.22359       -1.80129
H         -2.47235       -0.08962        0.30082
H         -1.71129        0.24690       -1.25458
H         -1.25639        2.11497        0.25806
H         -0.65823        1.02556        1.50773
H          0.61307        1.57366       -1.21408
H          1.22213        2.06221        0.37077
H          1.24481       -2.04829       -0.50481
H          0.63313       -0.95703       -1.75598
H         -0.64950       -1.58744        0.94789
H         -1.23748       -2.07275       -0.64122
H          3.28079        0.94341        0.12600
H          3.30175       -0.77058        0.20869
H          2.93466       -0.99119       -2.23805
H          3.42946        0.90289       -3.72074
H          1.87075        1.08304       -2.94163
H          3.14704        3.19675       -3.10763
H          2.77578        2.82432       -1.43329
H          5.10389        3.53856       -2.13859
H          4.90536        2.45819       -0.95964
H          5.13248        0.65907       -1.99604

--Link1--
%chk=JID_2609.chk
%mem=8GB
%nprocshared=4
# B3LYP/6-311++G(d,p) empiricaldispersion=gd3bj scf=xqc pop=npa geom=check

CID_71695546_JID_2609_Energie_neutraal

0 1

--Link1--
%chk=JID_2609.chk
%mem=8GB
%nprocshared=4
# B3LYP/6-311++G(d,p) empiricaldispersion=gd3bj scf=xqc pop=npa geom=check

CID_71695546_JID_2609_Energie_kation

1 2

--Link1--
%chk=JID_2609.chk
%mem=8GB
%nprocshared=4
# B3LYP/6-311++G(d,p) empiricaldispersion=gd3bj scf=xqc pop=npa geom=check

CID_71695546_JID_2609_Energie_anion

-1 2
