%chk=JID_1920.chk
%mem=8GB
%nprocshared=4
# opt freq B3LYP/6-31G(d) empiricaldispersion=gd3bj scf=xqc

CID_54145827_JID_1920_neutraal

0 1
C          0.93910       -0.02079       -0.07654
C          0.15434       -0.92013        0.52762
C         -1.28008       -0.94531        0.36495
C         -2.06034       -1.85537        0.96808
C         -3.56447       -1.97316        0.87591
C         -3.98210       -3.35409        0.26243
C         -4.94788       -2.95436       -0.87439
C         -4.27330       -1.68612       -1.40264
C         -4.32653       -0.97445       -0.04561
C         -5.80675       -1.13794        0.23838
C         -6.17532       -2.33063       -0.25304
H          0.54123        0.74925       -0.72968
H          2.01393       -0.03902        0.07446
H          0.60905       -1.66981        1.17188
H         -1.71153       -0.18515       -0.28077
H         -1.59442       -2.60005        1.61344
H         -3.94915       -1.89821        1.90250
H         -3.12080       -3.89641       -0.14594
H         -4.46582       -3.99235        1.01070
H         -5.15028       -3.72149       -1.62234
H         -4.85267       -1.17737       -2.18392
H         -3.25714       -1.85919       -1.77261
H         -3.99033        0.06304       -0.04682
H         -6.42429       -0.44537        0.78977
H         -7.15020       -2.78809       -0.17948

--Link1--
%chk=JID_1920.chk
%mem=8GB
%nprocshared=4
# B3LYP/6-311++G(d,p) empiricaldispersion=gd3bj scf=xqc pop=npa geom=check

CID_54145827_JID_1920_Energie_neutraal

0 1

--Link1--
%chk=JID_1920.chk
%mem=8GB
%nprocshared=4
# B3LYP/6-311++G(d,p) empiricaldispersion=gd3bj scf=xqc pop=npa geom=check

CID_54145827_JID_1920_Energie_kation

1 2

--Link1--
%chk=JID_1920.chk
%mem=8GB
%nprocshared=4
# B3LYP/6-311++G(d,p) empiricaldispersion=gd3bj scf=xqc pop=npa geom=check

CID_54145827_JID_1920_Energie_anion

-1 2
