%chk=JID_6589.chk
%mem=8GB
%nprocshared=4
# opt freq B3LYP/6-31G(d) empiricaldispersion=gd3bj scf=xqc

CID_88113011_JID_6589_neutraal

0 1
C          0.95752       -0.07950       -0.04331
C          0.21952        0.32272       -1.30542
O          0.96504       -0.08068       -2.46202
C          1.84149        0.82896       -2.94371
O          2.13487        1.90141       -2.43893
C          2.53671        0.30873       -4.13511
C          2.00800       -0.43063       -5.12036
C          0.59914       -0.83787       -5.26706
O          0.28352       -1.91697       -5.74442
O         -0.23717        0.16824       -4.92205
C         -1.62006       -0.16784       -5.03399
C          0.34087       -3.77714       -2.38919
C         -0.67728       -3.61083       -1.54305
O         -1.82618       -2.95972       -1.91178
C         -2.79270       -2.66283       -0.98330
C         -2.61830       -2.32661        0.30007
H          1.15432       -1.15650       -0.03924
H          0.37391        0.17566        0.84561
H          1.92859        0.42177        0.01877
H         -0.74596       -0.18974       -1.35130
H          0.01066        1.39878       -1.31847
H          3.58317        0.59128       -4.17847
H          2.64746       -0.80567       -5.91235
H         -1.88442       -0.35156       -6.07997
H         -1.85747       -1.03861       -4.41438
H         -2.20499        0.68237       -4.67216
H          0.29218       -3.38904       -3.40153
H          1.23651       -4.30833       -2.08900
H         -0.66676       -4.00435       -0.53687
H         -3.76718       -2.68164       -1.45745
H         -3.47348       -2.08742        0.92344
H         -1.63553       -2.26359        0.75259

--Link1--
%chk=JID_6589.chk
%mem=8GB
%nprocshared=4
# B3LYP/6-311++G(d,p) empiricaldispersion=gd3bj scf=xqc pop=npa geom=check

CID_88113011_JID_6589_Energie_neutraal

0 1

--Link1--
%chk=JID_6589.chk
%mem=8GB
%nprocshared=4
# B3LYP/6-311++G(d,p) empiricaldispersion=gd3bj scf=xqc pop=npa geom=check

CID_88113011_JID_6589_Energie_kation

1 2

--Link1--
%chk=JID_6589.chk
%mem=8GB
%nprocshared=4
# B3LYP/6-311++G(d,p) empiricaldispersion=gd3bj scf=xqc pop=npa geom=check

CID_88113011_JID_6589_Energie_anion

-1 2
