%chk=JID_7033.chk
%mem=8GB
%nprocshared=4
# opt freq B3LYP/6-31G(d) empiricaldispersion=gd3bj scf=xqc

CID_113877283_JID_7033_neutraal

0 1
C          0.94486       -0.06182       -0.05602
C          0.75834        0.53137        1.34168
C          1.15078        2.01368        1.32273
C         -0.68292        0.39148        1.87706
C         -1.28441       -1.01691        1.87857
O         -1.08034       -1.76322        3.07728
C          0.24843       -2.18963        3.36432
C          0.86193       -3.09155        2.31822
C          0.10263       -4.08785        1.68772
C          0.66768       -4.89573        0.69635
C          1.99931       -4.71148        0.31018
C          2.77472       -3.74970        0.97054
C          2.21339       -2.95387        1.97331
C          2.58911       -5.46155       -0.75845
N          3.09520       -6.06793       -1.60964
O         -0.17607       -5.78037        0.07795
C          0.11006       -7.13292        0.43858
H          0.23348        0.37225       -0.76679
H          0.81234       -1.14584       -0.06373
H          1.95555        0.13803       -0.42881
H          1.45316        0.02789        2.01845
H          0.51534        2.58474        0.63680
H          1.05616        2.45510        2.32043
H          2.19035        2.13724        1.00085
H         -0.72797        0.80335        2.89293
H         -1.32884        1.02113        1.25008
H         -2.37291       -0.89687        1.81481
H         -1.01334       -1.60256        0.99780
H          0.87158       -1.31457        3.56832
H          0.20484       -2.75408        4.30313
H         -0.94669       -4.21644        1.94890
H          3.81710       -3.59854        0.69389
H          2.83240       -2.20245        2.46071
H          0.73143       -7.59674       -0.33290
H          0.59538       -7.22243        1.41755
H         -0.83879       -7.67617        0.47896

--Link1--
%chk=JID_7033.chk
%mem=8GB
%nprocshared=4
# B3LYP/6-311++G(d,p) empiricaldispersion=gd3bj scf=xqc pop=npa geom=check

CID_113877283_JID_7033_Energie_neutraal

0 1

--Link1--
%chk=JID_7033.chk
%mem=8GB
%nprocshared=4
# B3LYP/6-311++G(d,p) empiricaldispersion=gd3bj scf=xqc pop=npa geom=check

CID_113877283_JID_7033_Energie_kation

1 2

--Link1--
%chk=JID_7033.chk
%mem=8GB
%nprocshared=4
# B3LYP/6-311++G(d,p) empiricaldispersion=gd3bj scf=xqc pop=npa geom=check

CID_113877283_JID_7033_Energie_anion

-1 2
