%chk=JID_4217.chk
%mem=8GB
%nprocshared=4
# opt freq B3LYP/6-31G(d) empiricaldispersion=gd3bj scf=xqc

CID_80366608_JID_4217_neutraal

0 1
C          1.03088        0.03681        0.08770
C          0.39401        0.38196        1.43499
C          0.72658        1.81072        1.89073
C         -0.02331        2.89371        1.14253
O         -1.16679        3.21434        1.47223
N          0.54042        3.51320        0.06696
C          1.86853        3.33489       -0.52972
C          2.55673        4.66167       -0.92612
C          3.00429        3.97306       -2.23382
C          1.83202        2.98873       -2.03720
O          4.32168        3.39223       -2.21250
C         -1.11956        0.11657        1.41327
O         -1.34650       -1.27548        1.18088
C         -2.73501       -1.56577        1.08128
H          0.56864        0.60047       -0.72799
H          0.91280       -1.02806       -0.13961
H          2.10454        0.24986        0.09524
H          0.84224       -0.30411        2.16695
H          0.44857        1.91972        2.94791
H          1.80464        1.99019        1.86446
H         -0.09207        4.20807       -0.31845
H          2.53799        2.68170        0.03728
H          3.36311        4.98127       -0.25970
H          1.88032        5.50911       -1.08951
H          2.89745        4.61158       -3.11770
H          0.91706        3.28807       -2.56223
H          2.04917        1.94488       -2.28066
H          4.40971        2.93133       -3.06518
H         -1.56478        0.39220        2.37641
H         -1.60385        0.69357        0.61695
H         -3.25217       -1.29273        2.00602
H         -3.17613       -1.03558        0.23151
H         -2.85118       -2.64059        0.91881

--Link1--
%chk=JID_4217.chk
%mem=8GB
%nprocshared=4
# B3LYP/6-311++G(d,p) empiricaldispersion=gd3bj scf=xqc pop=npa geom=check

CID_80366608_JID_4217_Energie_neutraal

0 1

--Link1--
%chk=JID_4217.chk
%mem=8GB
%nprocshared=4
# B3LYP/6-311++G(d,p) empiricaldispersion=gd3bj scf=xqc pop=npa geom=check

CID_80366608_JID_4217_Energie_kation

1 2

--Link1--
%chk=JID_4217.chk
%mem=8GB
%nprocshared=4
# B3LYP/6-311++G(d,p) empiricaldispersion=gd3bj scf=xqc pop=npa geom=check

CID_80366608_JID_4217_Energie_anion

-1 2
