%chk=JID_478.chk
%mem=8GB
%nprocshared=4
# opt freq B3LYP/6-31G(d) empiricaldispersion=gd3bj scf=xqc

CID_142119032_JID_478_neutraal

0 1
C          0.96448       -0.06558       -0.06661
C          0.55972        1.27740       -0.64961
C          0.72973        1.30869       -2.15864
C         -3.25504       -0.31864        0.01810
C         -3.26158       -0.08602       -1.48325
C         -2.73067       -1.29141       -2.24022
C          5.04718        1.92826        0.69653
C          4.00572        2.85474        1.35408
N          3.65998        4.00203        0.50900
N          4.76340        1.66036       -0.71761
H          2.01511       -0.28639       -0.27938
H          0.35412       -0.87401       -0.48088
H          0.83175       -0.06228        1.01976
H         -0.48492        1.48613       -0.39509
H          1.16632        2.06935       -0.19831
H          0.11069        0.54461       -2.63942
H          0.43180        2.28504       -2.55337
H          1.77282        1.13253       -2.43994
H         -3.88888       -1.17014        0.28563
H         -3.63477        0.56503        0.54037
H         -2.24198       -0.51829        0.38101
H         -4.28333        0.13108       -1.81383
H         -2.65032        0.79161       -1.72003
H         -3.34318       -2.17761       -2.04576
H         -2.74397       -1.09858       -3.31746
H         -1.70001       -1.51601       -1.94846
H          5.09101        0.98057        1.24338
H          6.03957        2.38843        0.76322
H          3.09128        2.28734        1.56130
H          4.39518        3.21325        2.31273
H          2.99216        4.59071        1.00613
H          3.17336        3.66818       -0.32111
H          3.80391        1.33478       -0.81082
H          4.80334        2.55806       -1.20395

--Link1--
%chk=JID_478.chk
%mem=8GB
%nprocshared=4
# B3LYP/6-311++G(d,p) empiricaldispersion=gd3bj scf=xqc pop=npa geom=check

CID_142119032_JID_478_Energie_neutraal

0 1

--Link1--
%chk=JID_478.chk
%mem=8GB
%nprocshared=4
# B3LYP/6-311++G(d,p) empiricaldispersion=gd3bj scf=xqc pop=npa geom=check

CID_142119032_JID_478_Energie_kation

1 2

--Link1--
%chk=JID_478.chk
%mem=8GB
%nprocshared=4
# B3LYP/6-311++G(d,p) empiricaldispersion=gd3bj scf=xqc pop=npa geom=check

CID_142119032_JID_478_Energie_anion

-1 2
