%chk=JID_10520.chk
%mem=8GB
%nprocshared=4
# opt freq B3LYP/6-31G(d) empiricaldispersion=gd3bj scf=xqc

CID_65224919_JID_10520_neutraal

0 1
C          1.06778       -0.04166       -0.06058
C          0.89359        1.40065       -0.56067
C          1.31554        1.46296       -2.03332
C         -0.55789        1.89159       -0.35576
C         -1.07454        1.93446        1.10058
N         -0.15710        2.47848        2.09764
C         -1.03743        3.10512       -1.16998
O         -1.73801        2.90530       -2.17355
N         -0.86750        4.40317       -0.80270
C          0.02191        5.04149        0.06692
C         -0.44902        6.14504        0.78570
C          0.38952        6.85055        1.65651
C          1.72878        6.48119        1.76339
C          2.21891        5.42140        0.99876
C          1.36907        4.71193        0.14775
O         -0.23035        7.85511        2.34890
C          0.52766        8.56769        3.31924
C          0.81222        7.79948        4.61214
O          1.77212        8.03725        5.33840
N         -0.10856        6.84822        4.94980
H          0.40602       -0.73125       -0.59581
H          0.85329       -0.12733        1.00856
H          2.09840       -0.38096       -0.21251
H          1.59019        2.00730        0.01997
H          0.65298        0.85792       -2.66176
H          1.30022        2.48954       -2.41192
H          2.33617        1.08591       -2.16075
H         -1.17112        1.08684       -0.79997
H         -2.00973        2.50504        1.14694
H         -1.32845        0.91385        1.41290
H         -0.59339        2.43372        3.01774
H          0.68257        1.90505        2.15796
H         -1.55780        5.00056       -1.24396
H         -1.49238        6.44116        0.70812
H          2.42621        6.99692        2.41556
H          3.27187        5.15566        1.05394
H          1.80023        3.96039       -0.49863
H          1.46243        8.94757        2.89141
H         -0.06522        9.44433        3.60452
H         -0.72736        6.48037        4.23619
H          0.10795        6.25945        5.74273

--Link1--
%chk=JID_10520.chk
%mem=8GB
%nprocshared=4
# B3LYP/6-311++G(d,p) empiricaldispersion=gd3bj scf=xqc pop=npa geom=check

CID_65224919_JID_10520_Energie_neutraal

0 1

--Link1--
%chk=JID_10520.chk
%mem=8GB
%nprocshared=4
# B3LYP/6-311++G(d,p) empiricaldispersion=gd3bj scf=xqc pop=npa geom=check

CID_65224919_JID_10520_Energie_kation

1 2

--Link1--
%chk=JID_10520.chk
%mem=8GB
%nprocshared=4
# B3LYP/6-311++G(d,p) empiricaldispersion=gd3bj scf=xqc pop=npa geom=check

CID_65224919_JID_10520_Energie_anion

-1 2
