%chk=JID_4264.chk
%mem=8GB
%nprocshared=4
# opt freq B3LYP/6-31G(d) empiricaldispersion=gd3bj scf=xqc

CID_66846378_JID_4264_neutraal

0 1
C          1.17300       -1.27400       -0.01900
C         -0.32317       -1.41864        0.19819
S         -1.22519       -0.03957       -0.46091
O         -2.57445       -0.09122        0.06596
O         -0.98639        0.02675       -1.88898
C         -0.39871        1.33433        0.30154
C          1.10099        1.29333        0.06143
C          1.82582        0.01262        0.52663
C          2.09831       -0.02877        2.05458
N          0.94378        0.03349        2.92356
C          0.47367       -0.99357        3.67537
O         -0.34716       -0.87667        4.56636
O          0.97071       -2.18825        3.33427
O          3.13236        0.04797       -0.09341
H          1.36908       -1.32858       -1.09946
H          1.68502       -2.15015        0.39947
H         -0.58713       -1.50604        1.25195
H         -0.69591       -2.31338       -0.31115
H         -0.65209        1.32866        1.36334
H         -0.82722        2.24239       -0.13540
H          1.56489        2.16862        0.53433
H          1.28583        1.42537       -1.01399
H          2.70837       -0.90761        2.29672
H          2.72433        0.83103        2.32687
H          0.63823        0.93590        3.26745
H          0.53645       -2.80222        3.96286
H          3.55740        0.90099        0.10424

--Link1--
%chk=JID_4264.chk
%mem=8GB
%nprocshared=4
# B3LYP/6-311++G(d,p) empiricaldispersion=gd3bj scf=xqc pop=npa geom=check

CID_66846378_JID_4264_Energie_neutraal

0 1

--Link1--
%chk=JID_4264.chk
%mem=8GB
%nprocshared=4
# B3LYP/6-311++G(d,p) empiricaldispersion=gd3bj scf=xqc pop=npa geom=check

CID_66846378_JID_4264_Energie_kation

1 2

--Link1--
%chk=JID_4264.chk
%mem=8GB
%nprocshared=4
# B3LYP/6-311++G(d,p) empiricaldispersion=gd3bj scf=xqc pop=npa geom=check

CID_66846378_JID_4264_Energie_anion

-1 2
