%chk=JID_7002.chk
%mem=8GB
%nprocshared=4
# opt freq B3LYP/6-31G(d) empiricaldispersion=gd3bj scf=xqc

CID_43269056_JID_7002_neutraal

0 1
C          1.08236        0.04541        0.03400
C          0.38503        1.27792       -0.52054
C          1.06365        1.84171       -1.77082
N          0.84403        1.02644       -2.96554
C         -0.38695        1.24503       -3.72756
C         -0.30385        2.46388       -4.63457
C          1.87383        0.18166       -3.39710
O          2.92640        0.00741       -2.78987
C          1.65940       -0.58894       -4.71306
O          1.64509        0.04252       -5.76530
N          1.48367       -1.97106       -4.62902
C          1.30841       -2.69752       -3.37968
C         -0.13406       -2.72866       -2.87896
C         -1.23331       -2.83303       -3.93840
N         -0.95136       -3.70746       -5.07175
C         -0.22693       -3.00542       -6.14376
C          1.25806       -2.72692       -5.85883
H          1.05283       -0.78549       -0.67433
H          0.59012       -0.28293        0.95498
H          2.12979        0.25969        0.26912
H         -0.66493        1.04044       -0.72399
H          0.39346        2.05176        0.25638
H          0.67587        2.84654       -1.97066
H          2.13835        1.95581       -1.58791
H         -0.61100        0.36288       -4.33227
H         -1.21535        1.35965       -3.02032
H          0.53896        2.39222       -5.32808
H         -1.22296        2.56153       -5.22063
H         -0.17620        3.38333       -4.05499
H          1.94831       -2.27182       -2.60193
H          1.66976       -3.72214       -3.53106
H         -0.22775       -3.56359       -2.17293
H         -0.33000       -1.82056       -2.29643
H         -2.13196       -3.21816       -3.44089
H         -1.51564       -1.83172       -4.28501
H         -0.43197       -4.53115       -4.77314
H         -0.74282       -2.06990       -6.39370
H         -0.28583       -3.62922       -7.04335
H          1.68279       -2.18285       -6.71017
H          1.81302       -3.66991       -5.78415

--Link1--
%chk=JID_7002.chk
%mem=8GB
%nprocshared=4
# B3LYP/6-311++G(d,p) empiricaldispersion=gd3bj scf=xqc pop=npa geom=check

CID_43269056_JID_7002_Energie_neutraal

0 1

--Link1--
%chk=JID_7002.chk
%mem=8GB
%nprocshared=4
# B3LYP/6-311++G(d,p) empiricaldispersion=gd3bj scf=xqc pop=npa geom=check

CID_43269056_JID_7002_Energie_kation

1 2

--Link1--
%chk=JID_7002.chk
%mem=8GB
%nprocshared=4
# B3LYP/6-311++G(d,p) empiricaldispersion=gd3bj scf=xqc pop=npa geom=check

CID_43269056_JID_7002_Energie_anion

-1 2
