%chk=JID_8636.chk
%mem=8GB
%nprocshared=4
# opt freq B3LYP/6-31G(d) empiricaldispersion=gd3bj scf=xqc

CID_149282074_JID_8636_neutraal

0 1
C          0.93111       -0.03802       -0.06171
N          0.48753        1.33480       -0.26512
C          1.36852        2.35523        0.08576
O          2.51591        2.17385        0.49008
C          0.79142        3.74141        0.04196
C         -0.11396        3.85419       -1.15432
N         -1.13029        2.82223       -1.12715
C         -0.79657        1.54137       -0.75569
N         -1.61163        0.54401       -0.84636
C         -2.88229        0.77460       -1.32922
C         -3.31293        1.96279       -1.77785
C         -2.35173        3.08802       -1.70284
O         -2.69562        4.17141       -2.17603
O         -4.54513        2.20988       -2.35285
C         -3.79925       -0.40371       -1.42888
O         -3.45335       -1.49729       -1.85616
O         -5.01660       -0.11327       -0.89584
C         -5.94310       -1.19704       -0.94641
H          0.70015       -0.63536       -0.94978
H          0.38871       -0.45525        0.79300
H          2.00436       -0.10332        0.13437
H          0.24797        3.91720        0.97689
H          1.60513        4.47004       -0.03299
H         -0.57458        4.84754       -1.18348
H          0.45342        3.72413       -2.08465
H         -4.53169        3.15976       -2.59901
H         -6.05043       -1.57315       -1.96905
H         -5.62608       -1.99689       -0.27036
H         -6.91679       -0.82636       -0.61415

--Link1--
%chk=JID_8636.chk
%mem=8GB
%nprocshared=4
# B3LYP/6-311++G(d,p) empiricaldispersion=gd3bj scf=xqc pop=npa geom=check

CID_149282074_JID_8636_Energie_neutraal

0 1

--Link1--
%chk=JID_8636.chk
%mem=8GB
%nprocshared=4
# B3LYP/6-311++G(d,p) empiricaldispersion=gd3bj scf=xqc pop=npa geom=check

CID_149282074_JID_8636_Energie_kation

1 2

--Link1--
%chk=JID_8636.chk
%mem=8GB
%nprocshared=4
# B3LYP/6-311++G(d,p) empiricaldispersion=gd3bj scf=xqc pop=npa geom=check

CID_149282074_JID_8636_Energie_anion

-1 2
