%chk=JID_9813.chk
%mem=8GB
%nprocshared=4
# opt freq B3LYP/6-31G(d) empiricaldispersion=gd3bj scf=xqc

CID_105732915_JID_9813_neutraal

0 1
C          1.07098       -0.00812       -0.06997
C          0.51453        0.69529        1.16404
C          0.94780        2.17601        1.29968
C          0.75511        2.98760        0.00704
C          0.20635        2.80120        2.54692
O          0.82443        2.91760        3.61618
N         -1.12486        3.24575        2.47706
C         -2.02396        3.00753        1.35762
C         -1.57430        4.12634        3.59234
C         -0.89329        5.50794        3.52674
C         -1.52624        6.43457        2.49281
C         -3.01905        6.64625        2.77236
C         -3.76006        5.30166        2.84573
C         -3.09283        4.29954        3.79248
N         -3.68080        7.46255        1.74899
C         -3.23793        8.85459        1.70035
C         -2.36847        9.13601        0.48154
O          2.37625        2.08531        1.55219
C          3.07930        3.31684        1.66398
H          0.66097        0.41671       -0.99099
H          0.80015       -1.06888       -0.04755
H          2.16247        0.05646       -0.11222
H         -0.57145        0.57706        1.16873
H          0.87231        0.14511        2.04553
H         -0.17242        2.75465       -0.51915
H          0.75132        4.06319        0.21829
H          1.56983        2.80408       -0.70336
H         -3.01055        2.71712        1.72380
H         -2.09117        3.91355        0.75188
H         -1.69795        2.18948        0.72444
H         -1.21312        3.63858        4.50822
H         -0.96987        5.98348        4.51362
H          0.17752        5.41710        3.31380
H         -1.37436        6.02782        1.48613
H         -0.99469        7.39248        2.52870
H         -3.13358        7.13740        3.74802
H         -3.85055        4.86744        1.84477
H         -4.79007        5.46987        3.18753
H         -3.60716        3.33311        3.74509
H         -3.25160        4.66816        4.81567
H         -3.59842        7.02733        0.83152
H         -4.13186        9.48459        1.63104
H         -2.71751        9.15874        2.61578
H         -2.90692        8.91578       -0.44660
H         -2.08431       10.19302        0.45944
H         -1.44991        8.54200        0.49053
H          3.23473        3.75774        0.67542
H          2.57316        4.03620        2.31149
H          4.06371        3.10388        2.09019

--Link1--
%chk=JID_9813.chk
%mem=8GB
%nprocshared=4
# B3LYP/6-311++G(d,p) empiricaldispersion=gd3bj scf=xqc pop=npa geom=check

CID_105732915_JID_9813_Energie_neutraal

0 1

--Link1--
%chk=JID_9813.chk
%mem=8GB
%nprocshared=4
# B3LYP/6-311++G(d,p) empiricaldispersion=gd3bj scf=xqc pop=npa geom=check

CID_105732915_JID_9813_Energie_kation

1 2

--Link1--
%chk=JID_9813.chk
%mem=8GB
%nprocshared=4
# B3LYP/6-311++G(d,p) empiricaldispersion=gd3bj scf=xqc pop=npa geom=check

CID_105732915_JID_9813_Energie_anion

-1 2
