%chk=JID_2086.chk
%mem=8GB
%nprocshared=4
# opt freq B3LYP/6-31G(d) empiricaldispersion=gd3bj scf=xqc

CID_53431574_JID_2086_neutraal

0 1
C          1.00674        0.07765       -0.06265
C          0.31285        1.18529       -0.85814
C          0.69681        1.17572       -2.38012
N          0.19106        0.11321       -3.27959
C          0.40617        0.52606       -4.67290
C          0.84504       -1.17556       -3.06144
N         -1.14532        1.34911       -0.67647
C         -1.92989        0.11714       -0.50045
C         -2.08046       -0.37835        0.96200
N         -2.49631        0.67066        1.91128
C         -1.59477        1.82745        1.77614
C         -1.52262        2.35440        0.32936
H          0.57496       -0.91171       -0.21491
H          0.96676        0.28999        1.01028
H          2.06720        0.01968       -0.33244
H          0.78836        2.11142       -0.50248
H          0.33069        2.13835       -2.76808
H          1.79200        1.23390       -2.45959
H          1.46984        0.66676       -4.90000
H          0.00165       -0.22025       -5.36583
H         -0.12002        1.46291       -4.88770
H          1.93726       -1.09232       -3.03545
H          0.50059       -1.64273       -2.13839
H          0.58074       -1.88619       -3.85387
H         -2.93964        0.32653       -0.87881
H         -1.55603       -0.69539       -1.13194
H         -1.14802       -0.82415        1.32101
H         -2.82765       -1.17999        0.98916
H         -3.43158        0.97444        1.64187
H         -0.59610        1.56501        2.14107
H         -1.96191        2.62780        2.42895
H         -0.86598        3.23161        0.28327
H         -2.51693        2.73339        0.05566

--Link1--
%chk=JID_2086.chk
%mem=8GB
%nprocshared=4
# B3LYP/6-311++G(d,p) empiricaldispersion=gd3bj scf=xqc pop=npa geom=check

CID_53431574_JID_2086_Energie_neutraal

0 1

--Link1--
%chk=JID_2086.chk
%mem=8GB
%nprocshared=4
# B3LYP/6-311++G(d,p) empiricaldispersion=gd3bj scf=xqc pop=npa geom=check

CID_53431574_JID_2086_Energie_kation

1 2

--Link1--
%chk=JID_2086.chk
%mem=8GB
%nprocshared=4
# B3LYP/6-311++G(d,p) empiricaldispersion=gd3bj scf=xqc pop=npa geom=check

CID_53431574_JID_2086_Energie_anion

-1 2
