%chk=JID_4852.chk
%mem=8GB
%nprocshared=4
# opt freq B3LYP/6-31G(d) empiricaldispersion=gd3bj scf=xqc

CID_130575326_JID_4852_neutraal

0 1
C          1.06462        0.02914       -0.07053
C          0.60977        1.46214       -0.35488
C          1.44293        2.04281       -1.50158
C         -0.88874        1.54823       -0.70927
C         -1.79995        1.18485        0.46258
C         -3.36471        1.40516        0.34776
C         -3.79640        2.49948       -0.64464
C         -5.28589        2.83833       -0.58707
C         -6.15193        1.79000       -1.27878
C         -6.56005        0.60780       -0.40639
C         -5.55339        0.13494        0.63752
C         -4.10541        0.07029        0.15836
C         -3.21103        1.89443        1.82404
N         -1.79605        2.20525        1.53906
H          0.82881       -0.63625       -0.90788
H          0.58812       -0.37151        0.82880
H          2.14686       -0.00860        0.09531
H          0.80741        2.06541        0.53959
H          1.29416        1.47615       -2.42722
H          1.16845        3.08542       -1.69390
H          2.51052        2.02036       -1.25822
H         -1.10632        2.56570       -1.05676
H         -1.10506        0.87919       -1.55183
H         -1.55792        0.18377        0.84636
H         -3.24289        3.42550       -0.44171
H         -3.52690        2.20302       -1.66612
H         -5.42297        3.78390       -1.12751
H         -5.62275        3.01604        0.43990
H         -5.64384        1.42069       -2.17836
H         -7.07092        2.27132       -1.63730
H         -6.81334       -0.23113       -1.06727
H         -7.49129        0.85972        0.11751
H         -5.86141       -0.87097        0.95121
H         -5.63802        0.76232        1.53225
H         -4.04709       -0.26293       -0.88471
H         -3.60750       -0.70663        0.75319
H         -3.33655        1.11255        2.58357
H         -3.81233        2.75931        2.11795
H         -1.15324        2.01642        2.30594

--Link1--
%chk=JID_4852.chk
%mem=8GB
%nprocshared=4
# B3LYP/6-311++G(d,p) empiricaldispersion=gd3bj scf=xqc pop=npa geom=check

CID_130575326_JID_4852_Energie_neutraal

0 1

--Link1--
%chk=JID_4852.chk
%mem=8GB
%nprocshared=4
# B3LYP/6-311++G(d,p) empiricaldispersion=gd3bj scf=xqc pop=npa geom=check

CID_130575326_JID_4852_Energie_kation

1 2

--Link1--
%chk=JID_4852.chk
%mem=8GB
%nprocshared=4
# B3LYP/6-311++G(d,p) empiricaldispersion=gd3bj scf=xqc pop=npa geom=check

CID_130575326_JID_4852_Energie_anion

-1 2
