%chk=JID_6075.chk
%mem=8GB
%nprocshared=4
# opt freq B3LYP/6-31G(d) empiricaldispersion=gd3bj scf=xqc

CID_103022516_JID_6075_neutraal

0 1
C          1.09629       -0.02557       -0.00867
C          0.29883        1.19668        0.43013
C          0.71089        2.48704       -0.31385
C          0.50701        2.47018       -1.84765
C         -0.88435        2.15323       -2.37080
N          0.21747        3.73449        0.34083
C          1.27240        4.68284        0.74219
C          2.00775        5.32563       -0.45053
N          2.94161        6.36483       -0.01701
C         -1.15580        3.88793        0.58726
O         -1.94092        2.99974        0.23080
C         -1.74111        5.16680        1.30787
C         -1.16574        5.31833        2.72624
C         -1.53245        6.40067        0.41723
O         -3.16305        4.90879        1.45732
C         -4.00444        6.00536        1.77549
H          0.89190       -0.28276       -1.05207
H          0.82493       -0.89021        0.60564
H          2.17178        0.14346        0.10381
H         -0.76361        0.97159        0.30393
H          0.45780        1.34229        1.50626
H          1.80282        2.52441       -0.18985
H          0.81546        3.43412       -2.26887
H          1.19403        1.72814       -2.27389
H         -1.57912        2.97559       -2.18343
H         -0.84553        2.01541       -3.45698
H         -1.28762        1.23389       -1.93876
H          0.87159        5.47379        1.36844
H          1.98334        4.13518        1.37398
H          2.57375        4.56482       -0.99732
H          1.28745        5.75778       -1.15352
H          3.42971        6.73666       -0.83249
H          2.42672        7.15026        0.38025
H         -0.55349        6.22134        2.82190
H         -1.94658        5.38016        3.49155
H         -0.54052        4.46289        3.00532
H         -2.07344        6.28314       -0.52919
H         -1.91367        7.31020        0.89400
H         -0.48885        6.59360        0.17148
H         -3.60344        6.60855        2.59423
H         -4.16830        6.62883        0.89204
H         -4.97519        5.60783        2.08497

--Link1--
%chk=JID_6075.chk
%mem=8GB
%nprocshared=4
# B3LYP/6-311++G(d,p) empiricaldispersion=gd3bj scf=xqc pop=npa geom=check

CID_103022516_JID_6075_Energie_neutraal

0 1

--Link1--
%chk=JID_6075.chk
%mem=8GB
%nprocshared=4
# B3LYP/6-311++G(d,p) empiricaldispersion=gd3bj scf=xqc pop=npa geom=check

CID_103022516_JID_6075_Energie_kation

1 2

--Link1--
%chk=JID_6075.chk
%mem=8GB
%nprocshared=4
# B3LYP/6-311++G(d,p) empiricaldispersion=gd3bj scf=xqc pop=npa geom=check

CID_103022516_JID_6075_Energie_anion

-1 2
