%chk=JID_7300.chk
%mem=8GB
%nprocshared=4
# opt freq B3LYP/6-31G(d) empiricaldispersion=gd3bj scf=xqc

CID_61911861_JID_7300_neutraal

0 1
O       -1.7713 1.8454  0.8141
N       1.0840  -1.3708 0.5227
N       -3.7545 -0.7926 -0.0802
N       -3.5980 2.0144  -0.5490
C       2.4035  -0.7612 0.3692
C       2.5282  0.4519  1.2976
C       2.6262  -0.3627 -1.0939
C       3.8682  1.1612  1.1093
C       3.9657  0.3482  -1.2795
C       4.0992  1.5498  -0.3483
C       0.0838  -0.6245 -0.2356
C       -1.3167 -0.9025 0.3258
C       -2.4667 -0.1590 -0.3954
C       1.1159  -2.7691 0.0933
C       -2.2755 -0.2543 -1.9173
C       -2.5566 1.3184  0.0265
C       -4.0354 -0.6926 1.3409
H       3.1858  -1.4710 0.6725
H       2.4364  0.1323  2.3433
H       1.7308  1.1841  1.1264
H       1.8816  0.3424  -1.4782
H       2.6122  -1.2394 -1.7516
H       4.6795  0.5032  1.4444
H       3.9035  2.0567  1.7400
H       4.0713  0.6750  -2.3204
H       4.7825  -0.3575 -1.0834
H       5.0954  1.9926  -0.4583
H       3.3734  2.3192  -0.6395
H       0.1163  -0.8976 -1.2965
H       0.2260  0.4581  -0.1615
H       -1.3083 -0.6513 1.3951
H       -1.5159 -1.9799 0.2621
H       0.1787  -3.2814 0.3318
H       1.8922  -3.3208 0.6368
H       1.3024  -2.8923 -0.9790
H       -2.0676 -1.2826 -2.2359
H       -1.4630 0.3940  -2.2651
H       -3.1710 0.0706  -2.4617
H       -3.7386 -1.7740 -0.3567
H       -4.0884 0.3329  1.7174
H       -3.3423 -1.2715 1.9584
H       -5.0275 -1.1233 1.5193
H       -4.2664 1.5765  -1.1743
H       -3.7462 2.9962  -0.3403

--Link1--
%chk=JID_7300.chk
%mem=8GB
%nprocshared=4
# B3LYP/6-311++G(d,p) empiricaldispersion=gd3bj scf=xqc pop=npa geom=check

CID_61911861_JID_7300_Energie_neutraal

0 1

--Link1--
%chk=JID_7300.chk
%mem=8GB
%nprocshared=4
# B3LYP/6-311++G(d,p) empiricaldispersion=gd3bj scf=xqc pop=npa geom=check

CID_61911861_JID_7300_Energie_kation

1 2

--Link1--
%chk=JID_7300.chk
%mem=8GB
%nprocshared=4
# B3LYP/6-311++G(d,p) empiricaldispersion=gd3bj scf=xqc pop=npa geom=check

CID_61911861_JID_7300_Energie_anion

-1 2
