%chk=JID_10454.chk
%mem=8GB
%nprocshared=4
# opt freq B3LYP/6-31G(d) empiricaldispersion=gd3bj scf=xqc

CID_79315171_JID_10454_neutraal

0 1
C          1.09877        0.01329       -0.00821
C          0.74405       -1.22843        0.80483
N          0.33536       -0.93854        2.18088
C         -0.26729       -2.08442        2.88715
C          0.49447       -3.42678        2.96651
C          0.06388       -4.24178        4.20648
C          0.32885       -5.68811        3.90588
C          0.45165       -6.69913        4.85252
C          0.63357       -8.01343        4.41615
C          0.67580       -8.30855        3.04707
C          0.53900       -7.29109        2.10068
C          0.36882       -5.98910        2.54340
S          0.18262       -4.54715        1.53983
C          1.28573       -0.15464        2.99693
C          2.62115       -0.84612        3.29930
O          3.28750       -1.43232        2.44447
N          3.13888       -0.79256        4.56351
C          2.60559       -0.16756        5.76750
C          1.64015       -1.10844        6.48261
C          3.75108        0.22355        6.69841
H          0.30015        0.76084        0.04137
H          1.23711       -0.25826       -1.06015
H          2.03065        0.47222        0.33553
H         -0.09794       -1.70496        0.28746
H          1.58148       -1.93109        0.76111
H         -0.50045       -1.75292        3.90729
H         -1.25630       -2.26099        2.44193
H          1.57554       -3.27391        3.02103
H          0.62905       -3.91266        5.08546
H         -1.00521       -4.11471        4.41805
H          0.40428       -6.47844        5.91465
H          0.73671       -8.81569        5.14303
H          0.81365       -9.33593        2.71919
H          0.56946       -7.51753        1.03959
H          1.51756        0.80015        2.51229
H          0.77302        0.12218        3.92113
H          4.00405       -1.31659        4.64099
H          2.07445        0.74506        5.47876
H          2.13526       -2.04397        6.76608
H          1.24239       -0.64354        7.39071
H          0.79287       -1.36891        5.84274
H          4.44429        0.90537        6.19373
H          3.37303        0.72646        7.59453
H          4.32482       -0.65460        7.01550

--Link1--
%chk=JID_10454.chk
%mem=8GB
%nprocshared=4
# B3LYP/6-311++G(d,p) empiricaldispersion=gd3bj scf=xqc pop=npa geom=check

CID_79315171_JID_10454_Energie_neutraal

0 1

--Link1--
%chk=JID_10454.chk
%mem=8GB
%nprocshared=4
# B3LYP/6-311++G(d,p) empiricaldispersion=gd3bj scf=xqc pop=npa geom=check

CID_79315171_JID_10454_Energie_kation

1 2

--Link1--
%chk=JID_10454.chk
%mem=8GB
%nprocshared=4
# B3LYP/6-311++G(d,p) empiricaldispersion=gd3bj scf=xqc pop=npa geom=check

CID_79315171_JID_10454_Energie_anion

-1 2
