%chk=JID_9986.chk
%mem=8GB
%nprocshared=4
# opt freq B3LYP/6-31G(d) empiricaldispersion=gd3bj scf=xqc

CID_114511696_JID_9986_neutraal

0 1
C          1.02787        0.05558        0.07832
C          0.62460       -1.40230       -0.04417
C          1.08298       -2.25282        1.14229
C          0.63981       -3.70866        0.99167
C          1.69530       -4.56265        1.71915
C          2.79321       -3.59369        2.17494
C          2.59767       -2.34439        1.30857
C          4.19200       -4.15288        2.21011
O          4.50894       -5.29859        2.47146
O          5.14404       -3.22814        1.98624
C          2.00307       -5.84755        0.92951
O          1.76301       -6.94024        1.45013
N          2.29908       -5.74030       -0.43444
C          1.91144       -6.90058       -1.24618
C          1.68004       -6.53362       -2.70486
S          3.19291       -5.91933       -3.49862
O          4.26696       -6.95243       -3.33363
C          3.49257       -4.59503       -2.29554
C          3.55134       -5.12374       -0.87073
H          0.64186        0.49374        1.00417
H          0.62489        0.63030       -0.76172
H          2.11597        0.17114        0.06968
H         -0.46775       -1.45966       -0.12559
H          1.03241       -1.80537       -0.97940
H          0.65006       -1.84776        2.06717
H         -0.35035       -3.85197        1.44110
H          0.53865       -3.98113       -0.06424
H          1.22139       -4.93013        2.64305
H          2.57676       -3.30027        3.21306
H          3.09594       -2.42585        0.33809
H          3.00153       -1.45297        1.80159
H          5.98448       -3.71706        2.12195
H          2.68010       -7.67485       -1.13440
H          0.97530       -7.31045       -0.84741
H          0.91775       -5.75211       -2.79682
H          1.34384       -7.40720       -3.27094
H          2.69695       -3.85103       -2.40597
H          4.44283       -4.12178       -2.56217
H          3.80928       -4.30028       -0.21787
H          4.34723       -5.87012       -0.75157

--Link1--
%chk=JID_9986.chk
%mem=8GB
%nprocshared=4
# B3LYP/6-311++G(d,p) empiricaldispersion=gd3bj scf=xqc pop=npa geom=check

CID_114511696_JID_9986_Energie_neutraal

0 1

--Link1--
%chk=JID_9986.chk
%mem=8GB
%nprocshared=4
# B3LYP/6-311++G(d,p) empiricaldispersion=gd3bj scf=xqc pop=npa geom=check

CID_114511696_JID_9986_Energie_kation

1 2

--Link1--
%chk=JID_9986.chk
%mem=8GB
%nprocshared=4
# B3LYP/6-311++G(d,p) empiricaldispersion=gd3bj scf=xqc pop=npa geom=check

CID_114511696_JID_9986_Energie_anion

-1 2
