%chk=JID_4293.chk
%mem=8GB
%nprocshared=4
# opt freq B3LYP/6-31G(d) empiricaldispersion=gd3bj scf=xqc

CID_116323520_JID_4293_neutraal

0 1
C          0.92947       -0.00334        0.07081
C          0.53847        0.10404       -1.40186
C          0.11479        1.53564       -1.79501
N          1.18279        2.54122       -1.69544
C          2.28413        2.25230       -2.63384
C          3.00041        0.92570       -2.34770
S          1.88835       -0.51071       -2.47556
C          0.71073        3.93128       -1.80732
C         -0.07517        4.32372       -3.07151
C         -1.59419        4.26096       -2.89611
C         -2.09079        5.39752       -2.01891
O         -1.86589        6.57299       -2.30859
N         -2.80970        5.10446       -0.88226
N         -3.07587        3.82676       -0.37904
H          1.17871       -1.03611        0.33896
H          0.09172        0.30316        0.70725
H          1.78347        0.63080        0.32910
H         -0.31652       -0.56092       -1.57087
H         -0.30437        1.51583       -2.80965
H         -0.70288        1.82144       -1.12242
H          3.04171        3.04218       -2.55206
H          1.93257        2.26255       -3.67323
H          3.45620        0.93812       -1.35201
H          3.81183        0.78656       -3.06969
H          0.12344        4.16367       -0.91091
H          1.58600        4.59053       -1.73319
H          0.21288        5.34636       -3.34742
H          0.21313        3.69761       -3.92271
H         -2.07484        4.39587       -3.87308
H         -1.91108        3.28234       -2.53643
H         -3.10581        5.91697       -0.34091
H         -3.58611        3.27751       -1.07339
H         -2.19679        3.34471       -0.18036

--Link1--
%chk=JID_4293.chk
%mem=8GB
%nprocshared=4
# B3LYP/6-311++G(d,p) empiricaldispersion=gd3bj scf=xqc pop=npa geom=check

CID_116323520_JID_4293_Energie_neutraal

0 1

--Link1--
%chk=JID_4293.chk
%mem=8GB
%nprocshared=4
# B3LYP/6-311++G(d,p) empiricaldispersion=gd3bj scf=xqc pop=npa geom=check

CID_116323520_JID_4293_Energie_kation

1 2

--Link1--
%chk=JID_4293.chk
%mem=8GB
%nprocshared=4
# B3LYP/6-311++G(d,p) empiricaldispersion=gd3bj scf=xqc pop=npa geom=check

CID_116323520_JID_4293_Energie_anion

-1 2
