%chk=JID_8099.chk
%mem=8GB
%nprocshared=4
# opt freq B3LYP/6-31G(d) empiricaldispersion=gd3bj scf=xqc

CID_43176435_JID_8099_neutraal

0 1
C          0.95190       -0.05727        0.06638
C          0.36936       -1.44591        0.36645
C          0.63512       -1.77158        1.84327
C         -1.14430       -1.52592        0.03361
C         -1.42736       -1.04367       -1.36970
O         -1.19063       -1.62184       -2.41814
O         -1.94951        0.20380       -1.39860
N         -1.73980       -2.84297        0.15952
N         -1.03635       -3.99289        0.12952
C         -2.02847       -4.89093        0.26623
N         -3.26119       -4.29359        0.40079
N         -3.06448       -2.98483        0.35129
C         -1.84377       -6.33513        0.28693
C         -0.56692       -6.89427        0.44525
C         -0.39589       -8.28083        0.47126
C         -1.49808       -9.12221        0.33229
C         -2.77165       -8.58012        0.17013
C         -2.94475       -7.19356        0.15080
H          0.40936        0.72528        0.60769
H          0.90987        0.17243       -1.00288
H          2.00508       -0.00522        0.36369
H          0.91935       -2.17009       -0.24893
H          0.11435       -1.06835        2.50225
H          0.30937       -2.78210        2.10490
H          1.70618       -1.71001        2.06561
H         -1.69648       -0.88672        0.73658
H         -2.08435        0.38955       -2.35345
H          0.30425       -6.25102        0.55405
H          0.59805       -8.70193        0.59900
H         -1.36433      -10.20090        0.34908
H         -3.63176       -9.23537        0.05751
H         -3.94699       -6.78929        0.02109

--Link1--
%chk=JID_8099.chk
%mem=8GB
%nprocshared=4
# B3LYP/6-311++G(d,p) empiricaldispersion=gd3bj scf=xqc pop=npa geom=check

CID_43176435_JID_8099_Energie_neutraal

0 1

--Link1--
%chk=JID_8099.chk
%mem=8GB
%nprocshared=4
# B3LYP/6-311++G(d,p) empiricaldispersion=gd3bj scf=xqc pop=npa geom=check

CID_43176435_JID_8099_Energie_kation

1 2

--Link1--
%chk=JID_8099.chk
%mem=8GB
%nprocshared=4
# B3LYP/6-311++G(d,p) empiricaldispersion=gd3bj scf=xqc pop=npa geom=check

CID_43176435_JID_8099_Energie_anion

-1 2
