%chk=JID_2009.chk
%mem=8GB
%nprocshared=4
# opt freq B3LYP/6-31G(d) empiricaldispersion=gd3bj scf=xqc

CID_21629331_JID_2009_neutraal

0 1
C          1.01360       -0.07990        0.05857
C          0.64617        1.21447        0.70555
C         -0.06808        2.23143        0.18987
C         -0.10597        3.41164        1.13519
N         -1.09823        4.10504        1.57156
C         -2.44228        3.69734        1.19252
N         -0.73889        2.34263       -1.03015
C         -0.48735        3.51814       -1.88937
C         -1.73182        3.90479       -2.68499
C         -2.30585        2.71765       -3.44805
C         -2.54463        1.54786       -2.50153
C         -1.26599        1.17806       -1.75348
H          1.00695       -0.02884       -1.03157
H          0.34171       -0.87616        0.39132
H          2.03303       -0.35431        0.35073
H          1.05649        1.31898        1.71018
H          0.89304        3.70860        1.50371
H         -2.74326        4.17548        0.25796
H         -2.56283        2.61227        1.11259
H         -3.14048        4.03140        1.96708
H          0.33583        3.28278       -2.57582
H         -0.16890        4.38635       -1.30117
H         -1.48566        4.71081       -3.38541
H         -2.49741        4.29762       -2.00669
H         -3.24533        3.00443       -3.93320
H         -1.61068        2.41650       -4.24109
H         -3.32796        1.81593       -1.78136
H         -2.90684        0.68183       -3.06656
H         -1.50853        0.36597       -1.05846
H         -0.51617        0.80766       -2.46235

--Link1--
%chk=JID_2009.chk
%mem=8GB
%nprocshared=4
# B3LYP/6-311++G(d,p) empiricaldispersion=gd3bj scf=xqc pop=npa geom=check

CID_21629331_JID_2009_Energie_neutraal

0 1

--Link1--
%chk=JID_2009.chk
%mem=8GB
%nprocshared=4
# B3LYP/6-311++G(d,p) empiricaldispersion=gd3bj scf=xqc pop=npa geom=check

CID_21629331_JID_2009_Energie_kation

1 2

--Link1--
%chk=JID_2009.chk
%mem=8GB
%nprocshared=4
# B3LYP/6-311++G(d,p) empiricaldispersion=gd3bj scf=xqc pop=npa geom=check

CID_21629331_JID_2009_Energie_anion

-1 2
