%chk=JID_9485.chk
%mem=8GB
%nprocshared=4
# opt freq B3LYP/6-31G(d) empiricaldispersion=gd3bj scf=xqc

CID_62754981_JID_9485_neutraal

0 1
C          0.94146        0.05108        0.06296
C          1.09134        0.57238        1.48387
C          0.39640        1.91504        1.72418
C         -1.12263        1.92268        1.51671
C         -1.91790        1.07848        2.52509
N         -1.81096        1.60271        3.90142
C         -2.49240        2.77466        4.14834
N         -3.35034        3.31526        3.30534
C         -3.87382        4.48668        3.80912
C         -3.40136        4.87144        5.04342
S         -2.24668        3.72951        5.57976
C         -3.75455        6.07267        5.85602
N         -4.76635        5.72626        6.85166
C         -5.12644        6.84524        7.71876
C         -5.92653        7.97017        7.05194
C         -7.25101        7.50969        6.46072
C         -1.72898        0.61605        5.00347
C         -2.96310       -0.28809        5.04093
C         -0.44161       -0.20512        4.92227
H         -0.09491       -0.22121       -0.15674
H          1.55400       -0.84597       -0.07392
H          1.26764        0.79825       -0.66729
H          0.72579       -0.18302        2.18449
H          2.16025        0.69815        1.69517
H          0.62893        2.25622        2.73997
H          0.83660        2.65780        1.04658
H         -1.45956        2.96519        1.55129
H         -1.35800        1.57262        0.50531
H         -2.97178        1.03849        2.21860
H         -1.56423        0.04480        2.46589
H         -4.60671        5.02773        3.22364
H         -2.85537        6.46623        6.34579
H         -4.12532        6.85379        5.18224
H         -5.59178        5.35197        6.38824
H         -5.72164        6.44135        8.54667
H         -4.22353        7.26427        8.17952
H         -6.13341        8.73692        7.80862
H         -5.33044        8.45947        6.27383
H         -7.85981        6.99695        7.21210
H         -7.81882        8.37165        6.09589
H         -7.09906        6.83199        5.61531
H         -1.67746        1.12769        5.97105
H         -3.04587       -0.90484        4.14003
H         -2.91874       -0.96308        5.90235
H         -3.88111        0.30327        5.12516
H          0.43160        0.44558        4.80729
H         -0.30632       -0.79044        5.83857
H         -0.45295       -0.91358        4.08919

--Link1--
%chk=JID_9485.chk
%mem=8GB
%nprocshared=4
# B3LYP/6-311++G(d,p) empiricaldispersion=gd3bj scf=xqc pop=npa geom=check

CID_62754981_JID_9485_Energie_neutraal

0 1

--Link1--
%chk=JID_9485.chk
%mem=8GB
%nprocshared=4
# B3LYP/6-311++G(d,p) empiricaldispersion=gd3bj scf=xqc pop=npa geom=check

CID_62754981_JID_9485_Energie_kation

1 2

--Link1--
%chk=JID_9485.chk
%mem=8GB
%nprocshared=4
# B3LYP/6-311++G(d,p) empiricaldispersion=gd3bj scf=xqc pop=npa geom=check

CID_62754981_JID_9485_Energie_anion

-1 2
