%chk=JID_74.chk
%mem=8GB
%nprocshared=4
# opt freq B3LYP/6-31G(d) empiricaldispersion=gd3bj scf=xqc

CID_144515011_JID_74_neutraal

0 1
C          0.94746        0.02988       -0.07967
C          0.64850        0.84264        1.18283
N          1.21237        2.18452        1.11732
C          0.44826        0.67506       -1.37721
C          0.79718       -0.12628       -2.65600
C          0.44434       -1.62345       -2.66478
C         -1.04110       -1.94258       -2.80621
O         -1.50183       -1.65575       -4.12215
O          0.15068        0.50830       -3.77310
O         -0.97002        0.87103       -1.33771
H          0.46189       -0.94307        0.05898
H          2.02712       -0.14935       -0.15343
H         -0.43328        0.91551        1.33726
H          1.06073        0.32095        2.05383
H          1.00786        2.67804        1.98769
H          2.23063        2.12818        1.07071
H          0.88676        1.67332       -1.49925
H          1.87830       -0.04271       -2.82024
H          0.95408       -2.06941       -3.52970
H          0.85002       -2.11563       -1.77583
H         -1.20436       -3.01159       -2.63655
H         -1.65704       -1.39859       -2.08709
H         -1.01809       -0.86002       -4.42428
H         -0.64061        0.94489       -3.38839
H         -1.12594        1.60040       -0.70758

--Link1--
%chk=JID_74.chk
%mem=8GB
%nprocshared=4
# B3LYP/6-311++G(d,p) empiricaldispersion=gd3bj scf=xqc pop=npa geom=check

CID_144515011_JID_74_Energie_neutraal

0 1

--Link1--
%chk=JID_74.chk
%mem=8GB
%nprocshared=4
# B3LYP/6-311++G(d,p) empiricaldispersion=gd3bj scf=xqc pop=npa geom=check

CID_144515011_JID_74_Energie_kation

1 2

--Link1--
%chk=JID_74.chk
%mem=8GB
%nprocshared=4
# B3LYP/6-311++G(d,p) empiricaldispersion=gd3bj scf=xqc pop=npa geom=check

CID_144515011_JID_74_Energie_anion

-1 2
