%chk=JID_3273.chk
%mem=8GB
%nprocshared=4
# opt freq B3LYP/6-31G(d) empiricaldispersion=gd3bj scf=xqc

CID_13343845_JID_3273_neutraal

0 1
C          1.09524       -0.00088       -0.03047
C          0.06468        1.01704        1.46662
C          0.35491        2.54003        1.99237
O          1.42858        3.08402        1.27962
C          1.68173        1.97188        0.46091
C          2.17557        0.61056        1.76793
C          1.08432       -0.97184        1.91110
C         -0.60816       -1.06493        0.99827
C         -1.03784        0.22666       -0.36298
C          0.01772        1.82838       -0.54625
C         -1.74673       -1.21684        1.99412
O         -1.64820       -1.38033        3.19768
O         -2.95435       -1.22430        1.40085
H          0.82587       -1.03487       -0.31713
H          2.18742       -0.18705        0.02856
H          1.15717        0.38364       -1.06932
H         -1.02890        1.12838        1.35977
H          0.01804        0.55363        2.46711
H         -0.53238        3.17169        1.86218
H          0.58478        2.54381        3.06495
H          2.52033        2.16184       -0.22123
H          3.20617        0.28691        1.54914
H          2.21910        1.06525        2.76823
H          0.92545       -1.16171        2.98200
H          1.69608       -1.80405        1.52892
H         -0.59483       -2.04238        0.48388
H         -2.08300        0.54446       -0.24134
H         -0.97453       -0.29867       -1.32873
H         -0.63561        2.67611       -0.29415
H          0.25564        1.95174       -1.61538
H         -3.58319       -1.36946        2.13898

--Link1--
%chk=JID_3273.chk
%mem=8GB
%nprocshared=4
# B3LYP/6-311++G(d,p) empiricaldispersion=gd3bj scf=xqc pop=npa geom=check

CID_13343845_JID_3273_Energie_neutraal

0 1

--Link1--
%chk=JID_3273.chk
%mem=8GB
%nprocshared=4
# B3LYP/6-311++G(d,p) empiricaldispersion=gd3bj scf=xqc pop=npa geom=check

CID_13343845_JID_3273_Energie_kation

1 2

--Link1--
%chk=JID_3273.chk
%mem=8GB
%nprocshared=4
# B3LYP/6-311++G(d,p) empiricaldispersion=gd3bj scf=xqc pop=npa geom=check

CID_13343845_JID_3273_Energie_anion

-1 2
