%chk=JID_7488.chk
%mem=8GB
%nprocshared=4
# opt freq B3LYP/6-31G(d) empiricaldispersion=gd3bj scf=xqc

CID_81818194_JID_7488_neutraal

0 1
C          2.34700       -0.19300        0.01200
C          0.87038       -0.40510        0.07590
C          0.18326       -1.58504        0.32786
C         -1.23620       -1.35528        0.30780
C         -1.57292       -0.03883        0.06776
S         -0.18044        0.92365       -0.15704
C         -2.94169        0.56907       -0.01294
N         -3.33818        1.10002        1.29184
C         -4.69593        1.61848        1.25665
C          0.82896       -2.93020        0.54864
N          0.22442       -3.64991        1.67753
C          0.27262       -5.10710        1.47066
C          1.65437       -5.70516        1.50672
C          2.06042       -6.62482        2.39203
C          0.60035       -3.28036        3.06338
C          1.96915       -2.78713        3.44578
C          0.78390       -1.86982        3.54497
H          2.61127        0.81281       -0.33062
H          2.79150       -0.33896        1.00196
H          2.80452       -0.90745       -0.68036
H         -1.97075       -2.13340        0.47958
H         -2.95623        1.36478       -0.76805
H         -3.65114       -0.20174       -0.34047
H         -3.26834        0.35493        1.98356
H         -5.42001        0.83545        1.00927
H         -4.95853        2.02067        2.24000
H         -4.78990        2.43441        0.53261
H          0.66228       -3.48256       -0.38729
H          1.91505       -2.84833        0.65505
H         -0.36896       -5.59217        2.21837
H         -0.18986       -5.35761        0.50712
H          2.35512       -5.37203        0.74551
H          3.07112       -7.02010        2.35806
H          1.40220       -6.99636        3.17134
H          0.11221       -3.92016        3.80177
H          2.39765       -3.16511        4.36717
H          2.70678       -2.57385        2.68463
H          0.72218       -1.03814        2.85952
H          0.41140       -1.62676        4.53441

--Link1--
%chk=JID_7488.chk
%mem=8GB
%nprocshared=4
# B3LYP/6-311++G(d,p) empiricaldispersion=gd3bj scf=xqc pop=npa geom=check

CID_81818194_JID_7488_Energie_neutraal

0 1

--Link1--
%chk=JID_7488.chk
%mem=8GB
%nprocshared=4
# B3LYP/6-311++G(d,p) empiricaldispersion=gd3bj scf=xqc pop=npa geom=check

CID_81818194_JID_7488_Energie_kation

1 2

--Link1--
%chk=JID_7488.chk
%mem=8GB
%nprocshared=4
# B3LYP/6-311++G(d,p) empiricaldispersion=gd3bj scf=xqc pop=npa geom=check

CID_81818194_JID_7488_Energie_anion

-1 2
