%chk=JID_7077.chk
%mem=8GB
%nprocshared=4
# opt freq B3LYP/6-31G(d) empiricaldispersion=gd3bj scf=xqc

CID_102805138_JID_7077_neutraal

0 1
C          2.50100       -0.11500        0.00200
C          1.05550       -0.06633        0.38767
C          0.28476        1.08954        0.23136
C         -1.06433        1.11504        0.62861
C         -1.57161       -0.06454        1.16450
N         -0.86781       -1.21311        1.30354
C          0.42425       -1.18610        0.91275
C         -1.87649        2.38780        0.50054
C         -2.36839        2.45734       -0.92160
C         -1.96590        3.39504       -1.86105
N         -2.65378        3.13328       -3.00346
N         -3.47803        2.08423       -2.89986
C         -3.32199        1.66188       -1.63758
C         -4.11805        0.49120       -1.18644
C         -2.58141        3.85535       -4.24962
N         -2.98325        2.51453        1.47768
N         -3.39332        3.90601        1.63053
H          3.10555       -0.47839        0.83936
H          2.63969       -0.77909       -0.85692
H          2.87503        0.87730       -0.27072
H          0.73747        1.98510       -0.18996
H         -2.59661       -0.13538        1.51674
H          0.95817       -2.12339        1.04567
H         -1.17722        3.21645        0.68616
H         -1.26734        4.21688       -1.79283
H         -4.84912        0.19138       -1.94592
H         -3.46916       -0.36811       -0.99905
H         -4.67897        0.71916       -0.27660
H         -2.35697        3.14553       -5.04989
H         -3.54653        4.33778       -4.42340
H         -1.79164        4.60809       -4.18891
H         -3.76559        1.95023        1.14262
H         -4.19476        3.97758        2.26520
H         -2.65583        4.45368        2.08496

--Link1--
%chk=JID_7077.chk
%mem=8GB
%nprocshared=4
# B3LYP/6-311++G(d,p) empiricaldispersion=gd3bj scf=xqc pop=npa geom=check

CID_102805138_JID_7077_Energie_neutraal

0 1

--Link1--
%chk=JID_7077.chk
%mem=8GB
%nprocshared=4
# B3LYP/6-311++G(d,p) empiricaldispersion=gd3bj scf=xqc pop=npa geom=check

CID_102805138_JID_7077_Energie_kation

1 2

--Link1--
%chk=JID_7077.chk
%mem=8GB
%nprocshared=4
# B3LYP/6-311++G(d,p) empiricaldispersion=gd3bj scf=xqc pop=npa geom=check

CID_102805138_JID_7077_Energie_anion

-1 2
