%chk=JID_1645.chk
%mem=8GB
%nprocshared=4
# opt freq B3LYP/6-31G(d) empiricaldispersion=gd3bj scf=xqc

CID_119054985_JID_1645_neutraal

0 1
C         -1.74700        0.00400       -0.45100
C         -0.59888        0.29937        0.50143
C          0.58229        1.10977       -0.08315
C          1.30569       -0.23393       -0.36637
C          0.40201       -0.85731        0.73187
C          2.80888       -0.20691       -0.13870
O          3.42174       -1.40388       -0.61153
C          3.33223       -2.54270        0.24511
C          4.28993       -2.48140        1.44915
N          3.60193       -2.10618        2.69428
C          4.52778       -2.10506        3.81965
H         -2.30001        0.92094       -0.67893
H         -1.39835       -0.42344       -1.39657
H         -2.44676       -0.70551        0.00233
H         -0.98909        0.72279        1.43533
H          0.36157        1.71929       -0.96419
H          1.08094        1.74246        0.66141
H          1.06567       -0.61165       -1.37076
H          0.84130       -0.85018        1.73631
H          0.02694       -1.86278        0.52128
H          3.23790        0.60190       -0.74111
H          3.07842        0.00665        0.89836
H          2.29746       -2.73994        0.53955
H          3.63446       -3.39467       -0.37523
H          4.71376       -3.48312        1.58957
H          5.11117       -1.78566        1.24148
H          3.19833       -1.17695        2.59812
H          5.33839       -1.38421        3.67192
H          3.99094       -1.82616        4.73166
H          4.95601       -3.09951        3.98140

--Link1--
%chk=JID_1645.chk
%mem=8GB
%nprocshared=4
# B3LYP/6-311++G(d,p) empiricaldispersion=gd3bj scf=xqc pop=npa geom=check

CID_119054985_JID_1645_Energie_neutraal

0 1

--Link1--
%chk=JID_1645.chk
%mem=8GB
%nprocshared=4
# B3LYP/6-311++G(d,p) empiricaldispersion=gd3bj scf=xqc pop=npa geom=check

CID_119054985_JID_1645_Energie_kation

1 2

--Link1--
%chk=JID_1645.chk
%mem=8GB
%nprocshared=4
# B3LYP/6-311++G(d,p) empiricaldispersion=gd3bj scf=xqc pop=npa geom=check

CID_119054985_JID_1645_Energie_anion

-1 2
