%chk=JID_8034.chk
%mem=8GB
%nprocshared=4
# opt freq B3LYP/6-31G(d) empiricaldispersion=gd3bj scf=xqc

CID_119120901_JID_8034_neutraal

0 1
C          0.94854       -0.08405       -0.01693
C          0.92174        1.19412        0.73838
N          0.14502        1.45627        1.77121
C          0.48729        2.71277        2.19380
C          1.46325        3.24347        1.38832
N          1.71199        2.28244        0.44529
C          2.63318        2.41941       -0.66800
C          1.94694        2.88478       -1.95391
N          1.69245        4.32174       -1.91744
C          0.54775        4.81356       -1.61153
N         -0.56329        4.10611       -1.24673
N          0.25393        6.14231       -1.58967
C          1.03579        7.26470       -1.83467
C          2.40674        7.24133       -2.06315
C          3.09413        8.43649       -2.27888
C          2.39961        9.63522       -2.25143
C          1.04069        9.58318       -2.01144
N          0.35447        8.43593       -1.80605
H          0.71512        0.07983       -1.07286
H          0.20754       -0.78136        0.38662
H          1.93220       -0.55715        0.05905
H          0.00979        3.16885        3.05121
H          1.96915        4.19941        1.39126
H          3.42210        3.11759       -0.36431
H          3.10370        1.44241       -0.82212
H          2.63482        2.70670       -2.78904
H          1.05181        2.29604       -2.18102
H         -1.09133        4.54322       -0.49959
H         -0.39296        3.14192       -0.98849
H         -0.71398        6.41763       -1.52560
H          2.96000        6.31038       -2.08313
H          4.16394        8.42214       -2.46565
H          2.90231       10.58174       -2.41166
H          0.44440       10.49028       -1.97449

--Link1--
%chk=JID_8034.chk
%mem=8GB
%nprocshared=4
# B3LYP/6-311++G(d,p) empiricaldispersion=gd3bj scf=xqc pop=npa geom=check

CID_119120901_JID_8034_Energie_neutraal

0 1

--Link1--
%chk=JID_8034.chk
%mem=8GB
%nprocshared=4
# B3LYP/6-311++G(d,p) empiricaldispersion=gd3bj scf=xqc pop=npa geom=check

CID_119120901_JID_8034_Energie_kation

1 2

--Link1--
%chk=JID_8034.chk
%mem=8GB
%nprocshared=4
# B3LYP/6-311++G(d,p) empiricaldispersion=gd3bj scf=xqc pop=npa geom=check

CID_119120901_JID_8034_Energie_anion

-1 2
