%chk=JID_4224.chk
%mem=8GB
%nprocshared=4
# opt freq B3LYP/6-31G(d) empiricaldispersion=gd3bj scf=xqc

CID_115359038_JID_4224_neutraal

0 1
C          0.92765       -0.05939        0.03519
C          0.47347       -1.32776        0.74037
C          0.92824       -1.40733        2.19902
C          0.42523       -0.28047        3.10581
C         -1.09662       -0.15144        3.21538
C         -1.83810       -1.39753        3.71676
C         -1.34671       -1.98743        5.04556
N         -1.41845       -1.00983        6.12823
C         -1.04678       -1.56205        7.43326
C          0.42053       -1.35414        7.91679
C          0.79361        0.14164        7.93059
C          0.50462       -1.87548        9.36966
C          1.45161       -2.10768        7.05197
O          1.16482       -3.49677        6.95167
H          0.44221        0.82775        0.45226
H          0.66908       -0.10812       -1.02752
H          2.01187        0.06828        0.11392
H         -0.61636       -1.41446        0.67320
H          0.88610       -2.19081        0.20390
H          0.62023       -2.37586        2.60941
H          2.02534       -1.40469        2.22636
H          0.85019       -0.42403        4.10532
H          0.82986        0.67666        2.75568
H         -1.32294        0.69288        3.87822
H         -1.51066        0.12786        2.23907
H         -2.90249       -1.14526        3.81154
H         -1.78436       -2.18091        2.95092
H         -1.98586       -2.84652        5.28333
H         -0.33130       -2.36943        4.91854
H         -0.86535       -0.18742        5.90638
H         -1.70397       -1.06209        8.15751
H         -1.32079       -2.62350        7.49565
H          0.05939        0.72815        8.49389
H          1.77244        0.29786        8.39886
H          0.85262        0.55676        6.91901
H          0.19599       -2.92392        9.44159
H          1.52615       -1.79961        9.75925
H         -0.14587       -1.29564       10.03462
H          1.48639       -1.70048        6.03772
H          2.46294       -2.00180        7.46255
H          1.38163       -3.90774        7.80554

--Link1--
%chk=JID_4224.chk
%mem=8GB
%nprocshared=4
# B3LYP/6-311++G(d,p) empiricaldispersion=gd3bj scf=xqc pop=npa geom=check

CID_115359038_JID_4224_Energie_neutraal

0 1

--Link1--
%chk=JID_4224.chk
%mem=8GB
%nprocshared=4
# B3LYP/6-311++G(d,p) empiricaldispersion=gd3bj scf=xqc pop=npa geom=check

CID_115359038_JID_4224_Energie_kation

1 2

--Link1--
%chk=JID_4224.chk
%mem=8GB
%nprocshared=4
# B3LYP/6-311++G(d,p) empiricaldispersion=gd3bj scf=xqc pop=npa geom=check

CID_115359038_JID_4224_Energie_anion

-1 2
