%chk=JID_10149.chk
%mem=8GB
%nprocshared=4
# opt freq B3LYP/6-31G(d) empiricaldispersion=gd3bj scf=xqc

CID_115987344_JID_10149_neutraal

0 1
C          0.93683        0.04555        0.06273
C          0.46858       -1.32997        0.52397
C         -0.26877       -1.33582        1.89658
C         -1.58900       -0.50019        1.83299
S         -2.89062       -1.05689        0.66219
C         -2.75698        0.22921       -0.59994
N         -0.36055       -2.75060        2.35275
C          0.89048       -3.22325        2.95931
C         -1.51445       -3.12897        3.20163
C         -1.67739       -2.57485        4.61924
N         -0.89039       -1.54631        5.03018
C         -1.04330       -1.04690        6.27485
C         -2.03135       -1.59058        7.09391
C         -2.54372       -1.41145        8.39485
N         -3.55596       -2.24121        8.67564
N         -3.67939       -2.97067        7.54105
C         -2.78418       -2.62032        6.56694
N         -2.65792       -3.15790        5.34465
C         -4.69463       -3.99036        7.45804
N         -0.21018       -0.00454        6.65079
H          0.10950        0.74148       -0.08705
H          1.47266       -0.04150       -0.88812
H          1.62192        0.48436        0.79528
H         -0.16540       -1.77542       -0.25157
H          1.36527       -1.95772        0.56663
H          0.36573       -0.79664        2.61482
H         -2.05896       -0.47588        2.82048
H         -1.34822        0.54736        1.62256
H         -2.79997        1.22373       -0.14830
H         -1.83228        0.11532       -1.16845
H         -3.59613        0.13251       -1.29413
H          1.16134       -2.66404        3.86075
H          0.81678       -4.28390        3.22613
H          1.73121       -3.15237        2.26335
H         -2.45074       -2.94186        2.66994
H         -1.49221       -4.22352        3.30316
H         -2.22321       -0.70749        9.15127
H         -4.53322       -4.70495        8.26904
H         -5.67163       -3.51105        7.55960
H         -4.63254       -4.50392        6.49592
H         -0.59503        0.64333        7.32413
H          0.24507        0.40459        5.84324

--Link1--
%chk=JID_10149.chk
%mem=8GB
%nprocshared=4
# B3LYP/6-311++G(d,p) empiricaldispersion=gd3bj scf=xqc pop=npa geom=check

CID_115987344_JID_10149_Energie_neutraal

0 1

--Link1--
%chk=JID_10149.chk
%mem=8GB
%nprocshared=4
# B3LYP/6-311++G(d,p) empiricaldispersion=gd3bj scf=xqc pop=npa geom=check

CID_115987344_JID_10149_Energie_kation

1 2

--Link1--
%chk=JID_10149.chk
%mem=8GB
%nprocshared=4
# B3LYP/6-311++G(d,p) empiricaldispersion=gd3bj scf=xqc pop=npa geom=check

CID_115987344_JID_10149_Energie_anion

-1 2
