%chk=JID_3466.chk
%mem=8GB
%nprocshared=4
# opt freq B3LYP/6-31G(d) empiricaldispersion=gd3bj scf=xqc

CID_20305678_JID_3466_neutraal

0 1
C          0.99874       -0.09882        0.01525
C          0.58313        0.97251       -0.98351
C          1.63599        2.06216       -1.12608
C          1.50853        3.26125       -0.37257
C          2.49924        4.24702       -0.46495
C          3.61664        4.04888       -1.26258
C          3.75356        2.86734       -1.98950
C          2.76960        1.86733       -1.96669
N          2.92887        0.65147       -2.64586
C          4.04027        0.39277       -3.56903
C          5.26609       -0.11450       -2.80087
O          4.88681       -1.20300       -1.95762
C          0.33319        3.52269        0.53306
H          1.91554       -0.60890       -0.29632
H          0.21048       -0.85267        0.10841
H          1.17570        0.33010        1.00715
H         -0.37808        1.39697       -0.67502
H          0.36670        0.51787       -1.95621
H          2.41293        5.17288        0.09953
H          4.38986        4.81058       -1.31447
H          4.65328        2.76033       -2.58560
H          2.04455        0.32215       -3.02456
H          3.71150       -0.40885       -4.24170
H          4.27483        1.25598       -4.20037
H          6.03710       -0.46480       -3.49316
H          5.70091        0.66303       -2.16665
H          4.06721       -0.88643       -1.52301
H          0.21793        2.71249        1.25963
H          0.46301        4.44812        1.10484
H         -0.58318        3.62655       -0.05634

--Link1--
%chk=JID_3466.chk
%mem=8GB
%nprocshared=4
# B3LYP/6-311++G(d,p) empiricaldispersion=gd3bj scf=xqc pop=npa geom=check

CID_20305678_JID_3466_Energie_neutraal

0 1

--Link1--
%chk=JID_3466.chk
%mem=8GB
%nprocshared=4
# B3LYP/6-311++G(d,p) empiricaldispersion=gd3bj scf=xqc pop=npa geom=check

CID_20305678_JID_3466_Energie_kation

1 2

--Link1--
%chk=JID_3466.chk
%mem=8GB
%nprocshared=4
# B3LYP/6-311++G(d,p) empiricaldispersion=gd3bj scf=xqc pop=npa geom=check

CID_20305678_JID_3466_Energie_anion

-1 2
