%chk=JID_269.chk
%mem=8GB
%nprocshared=4
# opt freq B3LYP/6-31G(d) empiricaldispersion=gd3bj scf=xqc

CID_23437295_JID_269_neutraal

0 1
C          1.04168        0.06138        0.06705
C          0.53501        1.37892       -0.49666
N          0.11468        2.47192       -0.96431
C         -1.08707       -1.26007       -3.08810
N          0.35838       -1.03656       -3.08052
C          0.71211        0.06288       -4.00779
C          2.23411        0.26657       -4.06826
O          2.90297       -0.93629       -4.47460
C          2.59332       -2.00565       -3.57168
C          1.07850       -2.25656       -3.50145
H          0.26077       -0.70074       -0.00174
H          1.31913        0.18954        1.11704
H          1.91980       -0.27228       -0.49231
H         -1.46270       -1.53428       -4.08050
H         -1.61484       -0.35913       -2.75629
H         -1.35303       -2.05800       -2.38616
H          0.34498       -0.16602       -5.01703
H          0.24100        0.99643       -3.68133
H          2.63183        0.58960       -3.09873
H          2.47569        1.04225       -4.80186
H          3.00359       -1.77211       -2.58175
H          3.10050       -2.90416       -3.93744
H          0.88655       -3.06693       -2.78904
H          0.72524       -2.58087       -4.48914

--Link1--
%chk=JID_269.chk
%mem=8GB
%nprocshared=4
# B3LYP/6-311++G(d,p) empiricaldispersion=gd3bj scf=xqc pop=npa geom=check

CID_23437295_JID_269_Energie_neutraal

0 1

--Link1--
%chk=JID_269.chk
%mem=8GB
%nprocshared=4
# B3LYP/6-311++G(d,p) empiricaldispersion=gd3bj scf=xqc pop=npa geom=check

CID_23437295_JID_269_Energie_kation

1 2

--Link1--
%chk=JID_269.chk
%mem=8GB
%nprocshared=4
# B3LYP/6-311++G(d,p) empiricaldispersion=gd3bj scf=xqc pop=npa geom=check

CID_23437295_JID_269_Energie_anion

-1 2
