%chk=JID_6695.chk
%mem=8GB
%nprocshared=4
# opt freq B3LYP/6-31G(d) empiricaldispersion=gd3bj scf=xqc

CID_63218297_JID_6695_neutraal

0 1
C          1.02633        0.05815        0.07697
C          0.03924       -1.08215       -0.21687
C          0.75640       -2.44017        0.13460
N          0.70795       -2.77771        1.55915
C          1.92732       -3.36050        2.10030
C          3.06903       -2.36734        2.34790
C          2.76966       -1.33433        3.42985
O          2.57245       -1.99395        4.67905
C          2.19835       -1.07908        5.70056
N         -1.25990       -0.92573        0.48979
C         -2.15700       -2.06865        0.20889
C         -3.57824       -1.58230        0.43755
C         -3.42264       -0.14015        0.86616
C         -2.06323        0.30194        0.29120
C         -1.58309        1.49491        1.13431
C         -2.22217        0.72784       -1.17986
H          1.10584        0.26110        1.14907
H          0.73815        0.97817       -0.43681
H          2.03042       -0.18469       -0.28868
H         -0.13145       -1.09310       -1.30169
H          0.26153       -3.25278       -0.41096
H          1.78479       -2.41150       -0.24529
H          0.36379       -1.98523        2.10103
H          1.67241       -3.85691        3.04385
H          2.27867       -4.15892        1.43484
H          3.94803       -2.94787        2.65577
H          3.33663       -1.85351        1.41826
H          3.62255       -0.65191        3.52177
H          1.88362       -0.74477        3.17414
H          2.98202       -0.33018        5.84963
H          1.25230       -0.58991        5.44861
H          2.06482       -1.63696        6.63114
H         -2.06551       -2.41885       -0.82696
H         -1.94071       -2.91184        0.87236
H         -4.09964       -2.16973        1.20013
H         -4.15656       -1.64564       -0.49122
H         -3.41761       -0.09724        1.96402
H         -4.25888        0.47697        0.51987
H         -0.71291        1.99729        0.70743
H         -2.37202        2.25277        1.21464
H         -1.32631        1.18538        2.15427
H         -2.58987       -0.08931       -1.80985
H         -2.93912        1.55246       -1.26823
H         -1.27639        1.07471       -1.60749

--Link1--
%chk=JID_6695.chk
%mem=8GB
%nprocshared=4
# B3LYP/6-311++G(d,p) empiricaldispersion=gd3bj scf=xqc pop=npa geom=check

CID_63218297_JID_6695_Energie_neutraal

0 1

--Link1--
%chk=JID_6695.chk
%mem=8GB
%nprocshared=4
# B3LYP/6-311++G(d,p) empiricaldispersion=gd3bj scf=xqc pop=npa geom=check

CID_63218297_JID_6695_Energie_kation

1 2

--Link1--
%chk=JID_6695.chk
%mem=8GB
%nprocshared=4
# B3LYP/6-311++G(d,p) empiricaldispersion=gd3bj scf=xqc pop=npa geom=check

CID_63218297_JID_6695_Energie_anion

-1 2
