%chk=JID_5321.chk
%mem=8GB
%nprocshared=4
# opt freq B3LYP/6-31G(d) empiricaldispersion=gd3bj scf=xqc

CID_67692142_JID_5321_neutraal

0 1
C         -0.71700        1.22600        0.24100
C          0.75473        1.14995       -0.18748
O          1.35846       -0.07647        0.24265
C          0.64114       -1.21396       -0.27539
C         -0.83834       -1.16316        0.16871
N         -1.50478        0.08357       -0.25692
C          1.36733       -2.46712        0.22878
C          0.83117       -3.80228       -0.30100
C          0.74277       -3.92155       -1.82793
N          2.05353       -3.78437       -2.45711
C          1.99697       -3.86043       -3.91524
C          1.46956       -2.59828       -4.61040
C          2.24947       -1.30829       -4.32468
C          3.72793       -1.35588       -4.69340
O          3.89432       -1.61595       -6.07899
H         -0.78225        1.24459        1.33560
H         -1.16292        2.15614       -0.12638
H          0.85558        1.23658       -1.27600
H          1.31686        1.97278        0.26525
H          0.70306       -1.16804       -1.36841
H         -0.90782       -1.23976        1.26087
H         -1.39519       -2.00641       -0.25183
H         -1.51137        0.11652       -1.27640
H          2.43494       -2.37843       -0.01032
H          1.33232       -2.48502        1.32638
H          1.46935       -4.60745        0.08588
H         -0.16529       -3.98340        0.11962
H          0.32917       -4.90898       -2.06600
H          0.03654       -3.17810       -2.21054
H          2.51540       -2.92826       -2.15898
H          3.00893       -4.07189       -4.27804
H          1.39335       -4.72330       -4.22311
H          1.46466       -2.78010       -5.69237
H          0.42083       -2.43554       -4.33416
H          1.77339       -0.50569       -4.90227
H          2.15184       -1.03358       -3.26940
H          4.18671       -0.38443       -4.48297
H          4.27555       -2.10776       -4.11726
H          3.74760       -2.56579       -6.22306

--Link1--
%chk=JID_5321.chk
%mem=8GB
%nprocshared=4
# B3LYP/6-311++G(d,p) empiricaldispersion=gd3bj scf=xqc pop=npa geom=check

CID_67692142_JID_5321_Energie_neutraal

0 1

--Link1--
%chk=JID_5321.chk
%mem=8GB
%nprocshared=4
# B3LYP/6-311++G(d,p) empiricaldispersion=gd3bj scf=xqc pop=npa geom=check

CID_67692142_JID_5321_Energie_kation

1 2

--Link1--
%chk=JID_5321.chk
%mem=8GB
%nprocshared=4
# B3LYP/6-311++G(d,p) empiricaldispersion=gd3bj scf=xqc pop=npa geom=check

CID_67692142_JID_5321_Energie_anion

-1 2
