%chk=JID_9959.chk
%mem=8GB
%nprocshared=4
# opt freq B3LYP/6-31G(d) empiricaldispersion=gd3bj scf=xqc

CID_62432485_JID_9959_neutraal

0 1
C          2.19400       -0.06300        0.00100
C          0.72115       -0.17107       -0.02423
C         -0.16780       -1.22783        0.08993
C         -1.46338       -0.64040       -0.02328
C         -1.28027        0.71860       -0.15235
O          0.05085        1.00528       -0.16891
C         -2.22186        1.86525       -0.26573
N         -2.52025        2.41082        1.05889
C         -3.51223        3.48571        1.03005
C         -4.93825        2.94806        0.89672
C         -3.37733        4.27903        2.33100
C          0.14368       -2.67825        0.25045
N         -0.47718       -3.24741        1.46178
C         -0.59271       -4.70227        1.30579
C          0.16953       -2.91268        2.76210
C          1.70634       -2.97086        2.73393
C         -0.36838       -1.57706        3.36943
C         -1.89579       -1.60527        3.52743
C          0.25280       -1.26590        4.73868
H          2.53790        0.73413       -0.66569
H          2.53904        0.16442        1.01409
H          2.66549       -0.99531       -0.32303
H         -2.41278       -1.15584        0.01917
H         -1.77433        2.63998       -0.89919
H         -3.13303        1.51567       -0.76344
H         -2.81956        1.65794        1.67634
H         -3.30336        4.17207        0.20014
H         -5.18151        2.25082        1.70650
H         -5.66333        3.76846        0.93493
H         -5.08609        2.42680       -0.05408
H         -2.36822        4.69396        2.43433
H         -4.08193        5.11771        2.34699
H         -3.57835        3.65447        3.20898
H         -0.28016       -3.16651       -0.63903
H          1.21971       -2.87458        0.20113
H          0.38371       -5.19161        1.22366
H         -1.13414       -5.14413        2.14994
H         -1.17751       -4.95065        0.41258
H         -0.14028       -3.68397        3.48302
H          2.13786       -2.10039        2.23185
H          2.11359       -3.00571        3.74983
H          2.06661       -3.87493        2.23204
H         -0.10894       -0.73960        2.71556
H         -2.20665       -2.40729        4.20579
H         -2.25960       -0.65711        3.93841
H         -2.40335       -1.75811        2.57129
H          1.32469       -1.06306        4.65325
H         -0.20484       -0.37353        5.17996
H          0.11239       -2.09757        5.43718

--Link1--
%chk=JID_9959.chk
%mem=8GB
%nprocshared=4
# B3LYP/6-311++G(d,p) empiricaldispersion=gd3bj scf=xqc pop=npa geom=check

CID_62432485_JID_9959_Energie_neutraal

0 1

--Link1--
%chk=JID_9959.chk
%mem=8GB
%nprocshared=4
# B3LYP/6-311++G(d,p) empiricaldispersion=gd3bj scf=xqc pop=npa geom=check

CID_62432485_JID_9959_Energie_kation

1 2

--Link1--
%chk=JID_9959.chk
%mem=8GB
%nprocshared=4
# B3LYP/6-311++G(d,p) empiricaldispersion=gd3bj scf=xqc pop=npa geom=check

CID_62432485_JID_9959_Energie_anion

-1 2
