%chk=JID_1153.chk
%mem=8GB
%nprocshared=4
# opt freq B3LYP/6-31G(d) empiricaldispersion=gd3bj scf=xqc

CID_114501903_JID_1153_neutraal

0 1
C          1.04003        0.07721        0.04935
C          0.44979        0.52326        1.39592
C          0.68535        2.03200        1.60449
N         -0.10667        2.84259        0.67667
C         -1.53634        2.60999        0.89019
C         -1.90675        1.14282        0.67736
C         -1.06198        0.19864        1.55604
C         -1.44753       -1.26724        1.23360
C         -0.70033       -2.25440        2.03908
C         -0.10059       -3.05986        2.69770
O         -1.44473        0.46853        2.92304
H          0.51087        0.51494       -0.80235
H          1.00973       -1.01111       -0.05739
H          2.09214        0.37421       -0.02441
H          1.00990        0.01062        2.18946
H          0.45766        2.31539        2.63994
H          1.74629        2.26204        1.45116
H          0.09290        3.82835        0.84822
H         -2.10078        3.22507        0.18055
H         -1.82849        2.94043        1.89447
H         -1.78507        0.88831       -0.38295
H         -2.97147        1.02339        0.91540
H         -2.51605       -1.41080        1.44136
H         -1.30183       -1.48059        0.16847
H          0.42765       -3.77921        3.28095
H         -0.97966       -0.17379        3.48885

--Link1--
%chk=JID_1153.chk
%mem=8GB
%nprocshared=4
# B3LYP/6-311++G(d,p) empiricaldispersion=gd3bj scf=xqc pop=npa geom=check

CID_114501903_JID_1153_Energie_neutraal

0 1

--Link1--
%chk=JID_1153.chk
%mem=8GB
%nprocshared=4
# B3LYP/6-311++G(d,p) empiricaldispersion=gd3bj scf=xqc pop=npa geom=check

CID_114501903_JID_1153_Energie_kation

1 2

--Link1--
%chk=JID_1153.chk
%mem=8GB
%nprocshared=4
# B3LYP/6-311++G(d,p) empiricaldispersion=gd3bj scf=xqc pop=npa geom=check

CID_114501903_JID_1153_Energie_anion

-1 2
