%chk=JID_7699.chk
%mem=8GB
%nprocshared=4
# opt freq B3LYP/6-31G(d) empiricaldispersion=gd3bj scf=xqc

CID_81080264_JID_7699_neutraal

0 1
C          0.99352        0.06528       -0.07548
C         -0.15854        0.68887       -0.87368
C         -0.32357        0.00978       -2.25450
C         -0.75128       -1.46628       -2.24038
N         -2.20833       -1.60486       -2.07471
C         -3.01749       -1.32295       -3.27824
C         -4.18627       -0.39738       -2.95298
C         -5.26921       -1.04801       -2.09425
C         -4.77113       -1.49826       -0.72251
C         -3.93283       -2.75497       -0.77982
C         -4.41236       -3.91544       -0.14379
C         -3.66749       -5.09146       -0.14725
C         -2.43596       -5.12172       -0.78720
C         -1.94907       -3.97485       -1.42000
C         -2.67659       -2.77127       -1.42628
C         -1.47054        0.71052       -0.07247
N         -1.37875        1.57684        1.10449
H          0.73013       -0.92268        0.31483
H          1.26681        0.69586        0.77690
H          1.88842       -0.04001       -0.69793
H          0.12691        1.72982       -1.08296
H         -1.01983        0.60622       -2.85620
H          0.64404        0.07004       -2.77043
H         -0.44840       -1.93738       -3.18470
H         -0.20428       -1.97676       -1.44091
H         -3.36913       -2.24579       -3.76011
H         -2.39982       -0.81860       -4.03203
H         -3.82009        0.50934       -2.45732
H         -4.64629       -0.07410       -3.89486
H         -6.06778       -0.31021       -1.94731
H         -5.71579       -1.89189       -2.63486
H         -5.64785       -1.67522       -0.08631
H         -4.20494       -0.70053       -0.22763
H         -5.37489       -3.90524        0.36257
H         -4.04941       -5.98050        0.34672
H         -1.85183       -6.03772       -0.80193
H         -0.99493       -4.05104       -1.93245
H         -2.28143        1.08729       -0.70351
H         -1.73981       -0.29587        0.26223
H         -2.28021        1.57113        1.58086
H         -0.71677        1.17521        1.76672

--Link1--
%chk=JID_7699.chk
%mem=8GB
%nprocshared=4
# B3LYP/6-311++G(d,p) empiricaldispersion=gd3bj scf=xqc pop=npa geom=check

CID_81080264_JID_7699_Energie_neutraal

0 1

--Link1--
%chk=JID_7699.chk
%mem=8GB
%nprocshared=4
# B3LYP/6-311++G(d,p) empiricaldispersion=gd3bj scf=xqc pop=npa geom=check

CID_81080264_JID_7699_Energie_kation

1 2

--Link1--
%chk=JID_7699.chk
%mem=8GB
%nprocshared=4
# B3LYP/6-311++G(d,p) empiricaldispersion=gd3bj scf=xqc pop=npa geom=check

CID_81080264_JID_7699_Energie_anion

-1 2
