%chk=JID_5137.chk
%mem=8GB
%nprocshared=4
# opt freq B3LYP/6-31G(d) empiricaldispersion=gd3bj scf=xqc

CID_10845996_JID_5137_neutraal

0 1
C          1.08706       -0.04744        0.01306
C          0.99246        0.29089       -1.46542
N          1.03098       -0.89985       -2.29117
C          2.16221       -1.61334       -2.58375
N          1.88127       -2.70602       -3.25809
C          0.52531       -2.65299       -3.46764
C         -0.03023       -1.54766       -2.86810
C         -1.39401       -1.17492       -2.79258
N         -2.49279       -0.81734       -2.67648
N         -0.21763       -3.62870       -4.12761
C         -0.03155       -4.81545       -3.65080
N          0.80536       -5.29397       -2.65966
O          0.05273       -5.62588       -1.51720
C         -0.00214       -7.05133       -1.41564
C         -1.44181       -7.49559       -1.59543
H          0.28009       -0.72220        0.31800
H          1.01758        0.86363        0.61536
H          2.03847       -0.53664        0.24736
H          0.06551        0.83363       -1.67638
H          1.82688        0.93138       -1.77136
H          3.14997       -1.30571       -2.26261
H         -0.64401       -5.63078       -4.07137
H          1.49297       -4.57482       -2.41112
H          0.65180       -7.55220       -2.13987
H          0.34312       -7.32003       -0.41200
H         -1.80509       -7.23848       -2.59551
H         -1.53790       -8.57556       -1.45510
H         -2.09622       -6.98554       -0.88044

--Link1--
%chk=JID_5137.chk
%mem=8GB
%nprocshared=4
# B3LYP/6-311++G(d,p) empiricaldispersion=gd3bj scf=xqc pop=npa geom=check

CID_10845996_JID_5137_Energie_neutraal

0 1

--Link1--
%chk=JID_5137.chk
%mem=8GB
%nprocshared=4
# B3LYP/6-311++G(d,p) empiricaldispersion=gd3bj scf=xqc pop=npa geom=check

CID_10845996_JID_5137_Energie_kation

1 2

--Link1--
%chk=JID_5137.chk
%mem=8GB
%nprocshared=4
# B3LYP/6-311++G(d,p) empiricaldispersion=gd3bj scf=xqc pop=npa geom=check

CID_10845996_JID_5137_Energie_anion

-1 2
