%chk=JID_6671.chk
%mem=8GB
%nprocshared=4
# opt freq B3LYP/6-31G(d) empiricaldispersion=gd3bj scf=xqc

CID_116303585_JID_6671_neutraal

0 1
C          1.03086        0.08582       -0.04101
N          0.91999       -1.07101        0.83619
C         -0.39085       -1.12483        1.48673
C         -1.48340       -1.75773        0.65968
C         -2.34466       -1.07032       -0.21323
N         -3.26555       -1.75337       -0.94628
C         -3.35394       -3.09436       -0.83330
C         -2.54846       -3.84232       -0.00923
C         -1.60219       -3.16297        0.74038
N         -2.27284        0.31390       -0.42940
C         -2.79394        0.70353       -1.74574
C         -2.69613        1.20949        0.66367
C         -4.04830        0.86616        1.30154
C         -3.91993        0.27630        2.71126
C         -3.39284        1.27312        3.70934
C         -2.26031        1.11965        4.40501
H          0.80463        1.01864        0.48561
H          0.38896       -0.00273       -0.92142
H          2.06205        0.16097       -0.40104
H          1.05789       -1.92005        0.29027
H         -0.26473       -1.73632        2.39081
H         -0.67180       -0.15381        1.89059
H         -4.11351       -3.56066       -1.45327
H         -2.64653       -4.91981        0.04371
H         -0.93964       -3.73044        1.39108
H         -2.52248        1.74356       -1.96034
H         -2.35097        0.10047       -2.54785
H         -3.88667        0.62746       -1.79342
H         -1.90302        1.30618        1.40557
H         -2.77724        2.22442        0.25020
H         -4.64363        1.78664        1.36721
H         -4.62855        0.18081        0.67366
H         -4.91356       -0.04005        3.05040
H         -3.29754       -0.62441        2.69204
H         -3.98989        2.16979        3.86967
H         -1.93400        1.87794        5.11150
H         -1.62985        0.24310        4.29043

--Link1--
%chk=JID_6671.chk
%mem=8GB
%nprocshared=4
# B3LYP/6-311++G(d,p) empiricaldispersion=gd3bj scf=xqc pop=npa geom=check

CID_116303585_JID_6671_Energie_neutraal

0 1

--Link1--
%chk=JID_6671.chk
%mem=8GB
%nprocshared=4
# B3LYP/6-311++G(d,p) empiricaldispersion=gd3bj scf=xqc pop=npa geom=check

CID_116303585_JID_6671_Energie_kation

1 2

--Link1--
%chk=JID_6671.chk
%mem=8GB
%nprocshared=4
# B3LYP/6-311++G(d,p) empiricaldispersion=gd3bj scf=xqc pop=npa geom=check

CID_116303585_JID_6671_Energie_anion

-1 2
