%chk=JID_8626.chk
%mem=8GB
%nprocshared=4
# opt freq B3LYP/6-31G(d) empiricaldispersion=gd3bj scf=xqc

CID_10444513_JID_8626_neutraal

0 1
C          1.04672        0.08813       -0.00717
C          0.62220       -1.34005       -0.21815
C         -0.62432       -1.59343       -0.81627
C         -1.06723       -2.90380       -1.02893
C         -0.32325       -4.04037       -0.64387
C          0.92613       -3.75428       -0.05026
C          1.40728       -2.45454        0.17771
C          2.68363       -2.59193        0.81105
C          2.95048       -3.93897        0.92150
N          1.89436       -4.62929        0.40960
C          4.16258       -4.55870        1.52200
C          5.27253       -3.50174        1.65622
C          4.73236       -2.16606        2.19701
C          3.65603       -1.55674        1.27719
C         -0.81728       -5.44281       -0.86234
N         -2.36582       -3.05698       -1.67916
O         -3.31959       -2.43569       -1.18939
O         -2.42233       -3.77688       -2.68558
H          0.98395        0.34226        1.05528
H          0.41084        0.78470       -0.56359
H          2.07259        0.23748       -0.35679
H         -1.25021       -0.75591       -1.12350
H          1.82432       -5.63642        0.36969
H          4.51878       -5.39626        0.91251
H          3.90903       -4.95141        2.51386
H          5.73246       -3.32723        0.67486
H          6.06094       -3.88186        2.31555
H          4.30591       -2.33394        3.19451
H          5.55448       -1.45161        2.31766
H          3.13991       -0.75558        1.81633
H          4.14132       -1.11080        0.40062
H         -1.86114       -5.54202       -0.54745
H         -0.72562       -5.71645       -1.91783
H         -0.24424       -6.16862       -0.27772

--Link1--
%chk=JID_8626.chk
%mem=8GB
%nprocshared=4
# B3LYP/6-311++G(d,p) empiricaldispersion=gd3bj scf=xqc pop=npa geom=check

CID_10444513_JID_8626_Energie_neutraal

0 1

--Link1--
%chk=JID_8626.chk
%mem=8GB
%nprocshared=4
# B3LYP/6-311++G(d,p) empiricaldispersion=gd3bj scf=xqc pop=npa geom=check

CID_10444513_JID_8626_Energie_kation

1 2

--Link1--
%chk=JID_8626.chk
%mem=8GB
%nprocshared=4
# B3LYP/6-311++G(d,p) empiricaldispersion=gd3bj scf=xqc pop=npa geom=check

CID_10444513_JID_8626_Energie_anion

-1 2
