%chk=JID_2891.chk
%mem=8GB
%nprocshared=4
# opt freq B3LYP/6-31G(d) empiricaldispersion=gd3bj scf=xqc

CID_54273690_JID_2891_neutraal

0 1
C          0.95047       -0.01542       -0.08549
C          0.59434        1.48007       -0.00294
C          1.17033        2.18536       -1.24392
C         -0.93781        1.62153       -0.00987
C          1.13197        2.17707        1.23604
C          1.77648        1.63341        2.24878
C          2.29444        0.46111        2.83698
C          2.39180        1.88585        3.49498
C          3.71314        2.61784        3.65255
C          3.42530        4.11595        3.87378
C          4.42945        2.06333        4.89860
C          4.65897        2.48241        2.44485
H          0.55304       -0.46297       -1.00423
H          0.52892       -0.57820        0.75506
H          2.03541       -0.17100       -0.09200
H          0.78437        1.73876       -2.16768
H          0.90822        3.24999       -1.26031
H          2.26398        2.11231       -1.27099
H         -1.38569        1.13401        0.86426
H         -1.24535        2.67394        0.00377
H         -1.37385        1.16300       -0.90496
H          0.95588        3.25130        1.28570
H          1.57901       -0.23764        3.24926
H          3.16586        0.02255        2.37417
H          1.71659        2.07786        4.32344
H          2.77983        4.27235        4.74583
H          4.35004        4.68065        4.03715
H          2.91361        4.55085        3.00759
H          4.65146        0.99624        4.78241
H          5.37459        2.58598        5.08294
H          3.80665        2.17005        5.79438
H          4.94248        1.44029        2.26474
H          4.20207        2.86804        1.52692
H          5.58606        3.04458        2.60802

--Link1--
%chk=JID_2891.chk
%mem=8GB
%nprocshared=4
# B3LYP/6-311++G(d,p) empiricaldispersion=gd3bj scf=xqc pop=npa geom=check

CID_54273690_JID_2891_Energie_neutraal

0 1

--Link1--
%chk=JID_2891.chk
%mem=8GB
%nprocshared=4
# B3LYP/6-311++G(d,p) empiricaldispersion=gd3bj scf=xqc pop=npa geom=check

CID_54273690_JID_2891_Energie_kation

1 2

--Link1--
%chk=JID_2891.chk
%mem=8GB
%nprocshared=4
# B3LYP/6-311++G(d,p) empiricaldispersion=gd3bj scf=xqc pop=npa geom=check

CID_54273690_JID_2891_Energie_anion

-1 2
