%chk=JID_6138.chk
%mem=8GB
%nprocshared=4
# opt freq B3LYP/6-31G(d) empiricaldispersion=gd3bj scf=xqc

CID_18360655_JID_6138_neutraal

0 1
C          0.93222        0.06666        0.03103
N          0.86721        0.33157       -1.38515
C          0.69125       -0.56868       -2.39295
O          0.76255       -0.18435       -3.56043
C          0.41018       -2.01731       -2.05415
C          1.51431       -2.92296       -2.59257
C          2.79229       -2.79522       -1.82980
C          3.89696       -2.04681       -2.18802
O          4.87651       -2.14338       -1.25405
C          4.41233       -2.96569       -0.27558
C          3.12738       -3.40098       -0.57971
C          2.48178       -4.25974        0.32861
C          3.16400       -4.63316        1.49051
C          4.45368       -4.18059        1.76683
C          5.11127       -3.32587        0.87525
O          2.51086       -5.46539        2.35451
H         -0.02012       -0.35173        0.36608
H          1.12311        1.00773        0.55209
H          1.74050       -0.63904        0.23446
H          1.08105        1.26672       -1.71176
H          0.26624       -2.17211       -0.98220
H         -0.54193       -2.27300       -2.53489
H          1.17519       -3.96506       -2.53899
H          1.69803       -2.71432       -3.65407
H          4.12268       -1.41310       -3.03556
H          1.47944       -4.62970        0.13956
H          4.96826       -4.48157        2.67496
H          6.11255       -2.95717        1.06163
H          3.10266       -5.67297        3.09650

--Link1--
%chk=JID_6138.chk
%mem=8GB
%nprocshared=4
# B3LYP/6-311++G(d,p) empiricaldispersion=gd3bj scf=xqc pop=npa geom=check

CID_18360655_JID_6138_Energie_neutraal

0 1

--Link1--
%chk=JID_6138.chk
%mem=8GB
%nprocshared=4
# B3LYP/6-311++G(d,p) empiricaldispersion=gd3bj scf=xqc pop=npa geom=check

CID_18360655_JID_6138_Energie_kation

1 2

--Link1--
%chk=JID_6138.chk
%mem=8GB
%nprocshared=4
# B3LYP/6-311++G(d,p) empiricaldispersion=gd3bj scf=xqc pop=npa geom=check

CID_18360655_JID_6138_Energie_anion

-1 2
