%chk=JID_2220.chk
%mem=8GB
%nprocshared=4
# opt freq B3LYP/6-31G(d) empiricaldispersion=gd3bj scf=xqc

CID_123954791_JID_2220_neutraal

0 1
C          0.92665        0.03163       -0.06016
C          0.04137       -1.13033        0.35917
C          0.77983       -2.25436        1.09874
C          0.70733       -2.17693        2.64110
C          1.57727       -1.07899        3.28032
C          3.07394       -1.42886        3.37001
C          3.28409       -2.85623        3.88322
N          2.48212       -3.84733        3.16453
C          1.05575       -3.53692        3.27526
C          3.82401       -1.05882        2.08945
O          3.77450        0.09673        1.65425
C          4.68619       -2.07974        1.39313
H          1.26118        0.61990        0.79541
H          0.36799        0.70638       -0.71739
H          1.80571       -0.31834       -0.61030
H         -0.80625       -0.76242        0.94782
H         -0.38322       -1.55712       -0.55872
H          0.28907       -3.19016        0.79733
H          1.81044       -2.33686        0.74377
H         -0.33792       -1.96360        2.90377
H          1.41843       -0.11612        2.78996
H          1.21674       -0.94045        4.30983
H          3.52153       -0.76510        4.12463
H          4.33906       -3.14204        3.82114
H          3.02720       -2.89674        4.95017
H          2.64913       -4.77024        3.56850
H          0.75500       -3.54379        4.33101
H          0.48152       -4.33386        2.78885
H          4.10531       -2.96546        1.13217
H          5.07269       -1.65003        0.46364
H          5.53520       -2.34523        2.02683

--Link1--
%chk=JID_2220.chk
%mem=8GB
%nprocshared=4
# B3LYP/6-311++G(d,p) empiricaldispersion=gd3bj scf=xqc pop=npa geom=check

CID_123954791_JID_2220_Energie_neutraal

0 1

--Link1--
%chk=JID_2220.chk
%mem=8GB
%nprocshared=4
# B3LYP/6-311++G(d,p) empiricaldispersion=gd3bj scf=xqc pop=npa geom=check

CID_123954791_JID_2220_Energie_kation

1 2

--Link1--
%chk=JID_2220.chk
%mem=8GB
%nprocshared=4
# B3LYP/6-311++G(d,p) empiricaldispersion=gd3bj scf=xqc pop=npa geom=check

CID_123954791_JID_2220_Energie_anion

-1 2
