%chk=JID_10680.chk
%mem=8GB
%nprocshared=4
# opt freq B3LYP/6-31G(d) empiricaldispersion=gd3bj scf=xqc

CID_82310715_JID_10680_neutraal

0 1
C          1.07061       -0.07062       -0.00512
C          0.16520       -1.28578        0.25233
C          0.81932       -2.20267        1.26140
N          1.07850       -1.88437        2.51876
C          1.66677       -2.98276        3.08437
C          2.09837       -3.18266        4.40358
C          2.67696       -4.41054        4.74486
C          2.82586       -5.41699        3.78971
C          2.40406       -5.23190        2.46769
C          1.82351       -3.99691        2.14888
N          1.31002       -3.46650        0.98390
C          1.35000       -4.13725       -0.30358
C          0.14309       -5.05187       -0.51810
N          0.17550       -5.68555       -1.83622
N         -1.21067       -0.84619        0.56008
C         -2.25489       -1.83800        0.27695
C         -2.68095       -2.71720        1.46907
N         -3.09897       -1.91328        2.62560
C         -1.96636       -1.05355        3.01701
C         -1.41931       -0.17933        1.85871
H          1.26694        0.50958        0.90263
H          0.62470        0.59977       -0.74853
H          2.04262       -0.39425       -0.39625
H          0.11241       -1.79254       -0.71697
H          1.97763       -2.39502        5.13858
H          3.01218       -4.57861        5.76540
H          3.27869       -6.36373        4.07744
H          2.52442       -6.01972        1.73180
H          1.42679       -3.37878       -1.08859
H          2.28259       -4.71296       -0.34858
H          0.12829       -5.83541        0.24779
H         -0.79010       -4.49030       -0.41559
H         -0.61596       -6.32451       -1.92364
H          0.05091       -4.98592       -2.56814
H         -3.14021       -1.28170       -0.06052
H         -1.98429       -2.47256       -0.57457
H         -1.87216       -3.39790        1.75885
H         -3.52379       -3.34728        1.16368
H         -3.86104       -1.30272        2.33128
H         -1.18220       -1.68276        3.44504
H         -2.30029       -0.39482        3.82708
H         -0.52808        0.35796        2.19946
H         -2.16504        0.60672        1.67613

--Link1--
%chk=JID_10680.chk
%mem=8GB
%nprocshared=4
# B3LYP/6-311++G(d,p) empiricaldispersion=gd3bj scf=xqc pop=npa geom=check

CID_82310715_JID_10680_Energie_neutraal

0 1

--Link1--
%chk=JID_10680.chk
%mem=8GB
%nprocshared=4
# B3LYP/6-311++G(d,p) empiricaldispersion=gd3bj scf=xqc pop=npa geom=check

CID_82310715_JID_10680_Energie_kation

1 2

--Link1--
%chk=JID_10680.chk
%mem=8GB
%nprocshared=4
# B3LYP/6-311++G(d,p) empiricaldispersion=gd3bj scf=xqc pop=npa geom=check

CID_82310715_JID_10680_Energie_anion

-1 2
