%chk=JID_8644.chk
%mem=8GB
%nprocshared=4
# opt freq B3LYP/6-31G(d) empiricaldispersion=gd3bj scf=xqc

CID_81021481_JID_8644_neutraal

0 1
C          1.06320       -0.07506       -0.01926
C          0.25680       -1.32213       -0.38090
C          0.31026       -2.28166        0.82087
C         -1.22964       -1.09993       -0.81043
C         -1.88457        0.22916       -0.40314
C         -1.66239        1.38548       -1.37712
C         -1.99249        0.98861       -2.82125
C         -1.21774       -0.26370       -3.29923
C         -1.48361       -1.41668       -2.30159
C          0.24718       -0.14837       -3.67313
C          0.89683       -1.21075       -4.28793
N          2.18972       -1.20976       -4.67030
C          2.85745       -0.07442       -4.43915
N          2.35041        1.02967       -3.87764
C          1.05093        0.96417       -3.51557
C         -1.92936        2.11180       -3.83577
O         -2.20949        2.00918       -5.01928
O         -1.52595        3.29271       -3.33839
H          0.64451        0.45052        0.84430
H          1.13214        0.62276       -0.85105
H          2.09185       -0.35079        0.24133
H          0.78951       -1.82875       -1.19510
H         -0.20821       -1.85874        1.68826
H         -0.15808       -3.24096        0.57531
H          1.34593       -2.48857        1.11174
H         -1.80684       -1.87082       -0.27723
H         -2.96920        0.05864       -0.34627
H         -1.58882        0.52113        0.61020
H         -0.64317        1.76640       -1.29198
H         -2.30806        2.21919       -1.07127
H         -3.06153        0.72225       -2.80910
H         -1.70231       -0.56186       -4.24289
H         -0.95481       -2.33431       -2.58492
H         -2.55037       -1.67166       -2.39250
H          0.37439       -2.13880       -4.50881
H          3.90000       -0.04465       -4.73458
H          0.69481        1.88516       -3.06818
H         -1.54351        3.89938       -4.10977

--Link1--
%chk=JID_8644.chk
%mem=8GB
%nprocshared=4
# B3LYP/6-311++G(d,p) empiricaldispersion=gd3bj scf=xqc pop=npa geom=check

CID_81021481_JID_8644_Energie_neutraal

0 1

--Link1--
%chk=JID_8644.chk
%mem=8GB
%nprocshared=4
# B3LYP/6-311++G(d,p) empiricaldispersion=gd3bj scf=xqc pop=npa geom=check

CID_81021481_JID_8644_Energie_kation

1 2

--Link1--
%chk=JID_8644.chk
%mem=8GB
%nprocshared=4
# B3LYP/6-311++G(d,p) empiricaldispersion=gd3bj scf=xqc pop=npa geom=check

CID_81021481_JID_8644_Energie_anion

-1 2
