%chk=JID_5902.chk
%mem=8GB
%nprocshared=4
# opt freq B3LYP/6-31G(d) empiricaldispersion=gd3bj scf=xqc

CID_99780291_JID_5902_neutraal

0 1
C          0.97219       -0.06544       -0.07031
C          1.17453       -1.54754        0.19037
N          2.12224       -1.74609        1.27652
C          3.40087       -1.73651        1.09058
N          4.03265       -1.54099       -0.12055
C          5.03761       -0.46134       -0.20577
C          6.28239       -0.65343       -1.02847
C          5.22345        0.30019       -1.49163
N          4.25158       -1.94302        2.17014
C          3.67526       -1.92115        3.51563
C          5.44879       -2.79009        2.03898
C          5.07244       -4.26922        1.89939
C          6.28432       -5.16030        1.61739
C          7.25793       -5.20753        2.76048
C          8.52769       -4.79026        2.68145
H          0.64279        0.44880        0.83868
H          0.21183        0.08441       -0.84292
H          1.89699        0.41319       -0.40649
H          0.21715       -1.98523        0.49545
H          1.46276       -2.07751       -0.72362
H          3.37421       -1.50866       -0.88642
H          5.13438        0.11649        0.71151
H          7.20718       -0.24293       -0.64103
H          6.39932       -1.58809       -1.56378
H          4.63338        0.01953       -2.35531
H          5.42835        1.36220       -1.42057
H          4.45967       -1.88206        4.27907
H          3.05252       -1.03072        3.65632
H          3.06404       -2.81205        3.69458
H          6.05537       -2.48138        1.18270
H          6.09094       -2.64389        2.91589
H          4.55931       -4.61311        2.80614
H          4.35880       -4.39283        1.07540
H          5.93420       -6.18257        1.42960
H          6.77821       -4.82719        0.69622
H          6.89561       -5.62226        3.69942
H          9.18865       -4.85715        3.54048
H          8.93882       -4.37780        1.76512

--Link1--
%chk=JID_5902.chk
%mem=8GB
%nprocshared=4
# B3LYP/6-311++G(d,p) empiricaldispersion=gd3bj scf=xqc pop=npa geom=check

CID_99780291_JID_5902_Energie_neutraal

0 1

--Link1--
%chk=JID_5902.chk
%mem=8GB
%nprocshared=4
# B3LYP/6-311++G(d,p) empiricaldispersion=gd3bj scf=xqc pop=npa geom=check

CID_99780291_JID_5902_Energie_kation

1 2

--Link1--
%chk=JID_5902.chk
%mem=8GB
%nprocshared=4
# B3LYP/6-311++G(d,p) empiricaldispersion=gd3bj scf=xqc pop=npa geom=check

CID_99780291_JID_5902_Energie_anion

-1 2
