%chk=JID_7768.chk
%mem=8GB
%nprocshared=4
# opt freq B3LYP/6-31G(d) empiricaldispersion=gd3bj scf=xqc

CID_55075124_JID_7768_neutraal

0 1
C          1.02169       -0.09720        0.00909
N          0.10712       -1.04982        0.62184
C         -0.54793       -0.54662        1.74895
C         -1.50505        0.47418        1.72611
C         -2.10133        0.82564        2.95023
C         -1.73562        0.18239        4.12446
C         -0.78569       -0.81253        4.04000
N         -0.19549       -1.18897        2.88662
C         -1.97699        1.15660        0.46161
N         -1.14568        2.29530        0.01767
C         -1.49469        2.66862       -1.35106
C         -1.14526        3.45374        0.93751
C         -2.49095        4.19636        1.02715
O         -3.41464        3.70154        1.68325
N         -2.64960        5.41378        0.37058
C         -1.67862        6.06465       -0.49715
C         -3.92404        6.10677        0.49534
H          1.44000        0.61953        0.72494
H          0.53648        0.43358       -0.81247
H          1.86098       -0.64690       -0.43108
H          0.64384       -1.81990        1.02487
H         -2.86761        1.59720        2.98582
H         -2.18998        0.44402        5.07260
H         -0.46501       -1.35775        4.92241
H         -1.99295        0.38902       -0.32465
H         -3.02856        1.45242        0.56713
H         -2.52918        3.01611       -1.44420
H         -0.82392        3.44946       -1.72299
H         -1.36537        1.81571       -2.02740
H         -0.88291        3.13986        1.95456
H         -0.32665        4.12571        0.67464
H         -2.13459        6.20777       -1.48187
H         -1.43194        7.04160       -0.07066
H         -0.75805        5.50296       -0.63131
H         -4.58755        5.64215        1.22868
H         -3.73626        7.13990        0.80336
H         -4.41959        6.10270       -0.48015

--Link1--
%chk=JID_7768.chk
%mem=8GB
%nprocshared=4
# B3LYP/6-311++G(d,p) empiricaldispersion=gd3bj scf=xqc pop=npa geom=check

CID_55075124_JID_7768_Energie_neutraal

0 1

--Link1--
%chk=JID_7768.chk
%mem=8GB
%nprocshared=4
# B3LYP/6-311++G(d,p) empiricaldispersion=gd3bj scf=xqc pop=npa geom=check

CID_55075124_JID_7768_Energie_kation

1 2

--Link1--
%chk=JID_7768.chk
%mem=8GB
%nprocshared=4
# B3LYP/6-311++G(d,p) empiricaldispersion=gd3bj scf=xqc pop=npa geom=check

CID_55075124_JID_7768_Energie_anion

-1 2
