%chk=JID_8023.chk
%mem=8GB
%nprocshared=4
# opt freq B3LYP/6-31G(d) empiricaldispersion=gd3bj scf=xqc

CID_127501317_JID_8023_neutraal

0 1
C          0.96835       -0.09079       -0.02748
C         -0.19891        0.27041        0.86878
C          0.29625        0.69729        2.22247
C          0.27658       -0.19876        3.29347
C          0.74941        0.19093        4.54433
C          1.25471        1.48522        4.74744
C          1.30536        2.36838        3.65882
C          0.82424        1.97915        2.41029
C          1.70212        1.96170        6.11468
C          0.71228        1.57647        7.20197
N         -0.10887        1.25688        8.10398
C          3.12461        1.62155        6.45263
O          4.03912        2.43351        6.31874
C          3.42892        0.19549        6.92007
O          2.57625       -0.66607        7.01352
O          4.74315        0.07328        7.19768
C          5.18064       -1.21713        7.64475
C          5.05916       -1.31097        9.15361
H          1.62860        0.76687       -0.19608
H          0.60397       -0.42747       -1.00346
H          1.57068       -0.89795        0.40380
H         -0.78930        1.07751        0.41922
H         -0.87353       -0.58900        0.96377
H         -0.11575       -1.20559        3.16432
H          0.68758       -0.53150        5.35782
H          1.70045        3.37658        3.77368
H          0.86086        2.68262        1.58089
H          1.66185        3.06203        6.10829
H          4.62665       -2.02161        7.14766
H          6.23072       -1.31915        7.35173
H          4.01596       -1.20997        9.46932
H          5.44363       -2.26878        9.51513
H          5.61772       -0.50157        9.63529

--Link1--
%chk=JID_8023.chk
%mem=8GB
%nprocshared=4
# B3LYP/6-311++G(d,p) empiricaldispersion=gd3bj scf=xqc pop=npa geom=check

CID_127501317_JID_8023_Energie_neutraal

0 1

--Link1--
%chk=JID_8023.chk
%mem=8GB
%nprocshared=4
# B3LYP/6-311++G(d,p) empiricaldispersion=gd3bj scf=xqc pop=npa geom=check

CID_127501317_JID_8023_Energie_kation

1 2

--Link1--
%chk=JID_8023.chk
%mem=8GB
%nprocshared=4
# B3LYP/6-311++G(d,p) empiricaldispersion=gd3bj scf=xqc pop=npa geom=check

CID_127501317_JID_8023_Energie_anion

-1 2
