%chk=JID_9765.chk
%mem=8GB
%nprocshared=4
# opt freq B3LYP/6-31G(d) empiricaldispersion=gd3bj scf=xqc

CID_105082600_JID_9765_neutraal

0 1
C          2.16200        1.33800       -0.04700
C          0.81441        0.82846        0.31821
C         -0.42716        1.44746        0.35822
C         -1.32214        0.41921        0.77060
N         -0.68731       -0.73499        0.99042
N          0.59673       -0.46864        0.70908
C          1.57311       -1.52780        0.82061
C         -2.79353        0.49832        0.95064
C         -0.77890        2.86265        0.02023
C         -0.65932        3.82845        1.20773
C          0.77812        4.08403        1.68736
C          1.62944        4.87675        0.68044
C          1.56400        6.40517        0.78234
C          2.38025        7.05077        1.90154
S          4.15138        6.81507        1.78971
O          4.49932        6.41932        0.43713
O          4.78493        7.97298        2.39333
C          4.48221        5.43625        2.86418
O          0.74855        4.76922        2.93740
H          2.76265        1.51525        0.85033
H          2.69425        0.62167       -0.68140
H          2.09439        2.27268       -0.60934
H          1.14107       -2.36559        1.37435
H          1.84665       -1.84602       -0.18833
H          2.44587       -1.14754        1.35685
H         -3.28972        0.55825       -0.02337
H         -3.18220       -0.38012        1.47635
H         -3.06466        1.38451        1.53270
H         -0.17970        3.20004       -0.83119
H         -1.81804        2.88833       -0.33311
H         -1.11971        4.78697        0.93625
H         -1.25736        3.44747        2.04628
H          1.27030        3.12930        1.88679
H          2.66727        4.54843        0.77494
H          1.35246        4.59792       -0.34130
H          1.91097        6.81976       -0.17289
H          0.51737        6.71699        0.88192
H          2.23075        8.13605        1.84776
H          2.06866        6.74830        2.90277
H          4.15840        5.69072        3.87466
H          3.96239        4.54886        2.50658
H          5.55970        5.25551        2.85456
H          0.22055        4.22628        3.55121

--Link1--
%chk=JID_9765.chk
%mem=8GB
%nprocshared=4
# B3LYP/6-311++G(d,p) empiricaldispersion=gd3bj scf=xqc pop=npa geom=check

CID_105082600_JID_9765_Energie_neutraal

0 1

--Link1--
%chk=JID_9765.chk
%mem=8GB
%nprocshared=4
# B3LYP/6-311++G(d,p) empiricaldispersion=gd3bj scf=xqc pop=npa geom=check

CID_105082600_JID_9765_Energie_kation

1 2

--Link1--
%chk=JID_9765.chk
%mem=8GB
%nprocshared=4
# B3LYP/6-311++G(d,p) empiricaldispersion=gd3bj scf=xqc pop=npa geom=check

CID_105082600_JID_9765_Energie_anion

-1 2
