%chk=JID_6017.chk
%mem=8GB
%nprocshared=4
# opt freq B3LYP/6-31G(d) empiricaldispersion=gd3bj scf=xqc

CID_20307511_JID_6017_neutraal

0 1
C          0.99774        0.08112       -0.05843
C          0.33619       -0.48162       -1.30549
N          0.81518       -1.82919       -1.66222
C         -0.09323       -2.63096       -2.39339
C         -1.10957       -2.10544       -3.20504
C         -2.00917       -2.93070       -3.91368
C         -1.86412       -4.32504       -3.85477
C         -0.89566       -4.85763       -3.00169
C         -0.01417       -4.02654       -2.30271
N         -2.79969       -5.18985       -4.44378
C         -3.09760       -2.28844       -4.72946
C          2.23759       -2.05514       -2.07268
C          2.76574       -0.91382       -2.94809
C          3.17999       -2.31163       -0.87048
O          2.98341       -3.60005       -0.27357
C          2.09744       -3.56291        0.83739
H          0.96155       -0.63325        0.76963
H          0.47922        0.99195        0.25954
H          2.03987        0.35525       -0.23875
H         -0.73652       -0.52330       -1.07338
H          0.45609        0.21772       -2.14099
H         -1.21561       -1.02954       -3.30925
H         -0.81303       -5.93270       -2.86801
H          0.72933       -4.48639       -1.65648
H         -2.44136       -6.12789       -4.59268
H         -3.23480       -4.81398       -5.27890
H         -2.96179       -2.52020       -5.79069
H         -4.07991       -2.64259       -4.40029
H         -3.09223       -1.19827       -4.62492
H          2.30351       -2.95938       -2.69331
H          2.87591        0.01976       -2.38872
H          3.75116       -1.16815       -3.35382
H          2.09731       -0.72680       -3.79533
H          4.21133       -2.32363       -1.24277
H          3.14105       -1.52600       -0.11199
H          2.50370       -2.92360        1.62716
H          1.10335       -3.21618        0.54977
H          2.00451       -4.57856        1.23174

--Link1--
%chk=JID_6017.chk
%mem=8GB
%nprocshared=4
# B3LYP/6-311++G(d,p) empiricaldispersion=gd3bj scf=xqc pop=npa geom=check

CID_20307511_JID_6017_Energie_neutraal

0 1

--Link1--
%chk=JID_6017.chk
%mem=8GB
%nprocshared=4
# B3LYP/6-311++G(d,p) empiricaldispersion=gd3bj scf=xqc pop=npa geom=check

CID_20307511_JID_6017_Energie_kation

1 2

--Link1--
%chk=JID_6017.chk
%mem=8GB
%nprocshared=4
# B3LYP/6-311++G(d,p) empiricaldispersion=gd3bj scf=xqc pop=npa geom=check

CID_20307511_JID_6017_Energie_anion

-1 2
