%chk=JID_4479.chk
%mem=8GB
%nprocshared=4
# opt freq B3LYP/6-31G(d) empiricaldispersion=gd3bj scf=xqc

CID_84719378_JID_4479_neutraal

0 1
C          2.52600       -1.50900        0.00600
C          1.56788       -0.43672       -0.34053
C          0.20319       -0.32976       -0.25657
C         -0.66416       -1.30158        0.22852
C         -2.00494       -0.86451        0.16694
C         -2.42121        0.41797       -0.33735
C         -1.49654        1.37793       -0.82444
C         -0.15340        0.96908       -0.76971
N          0.96136        1.62044       -1.13915
N          1.96340        0.76106       -0.87591
C         -3.89958        0.75576       -0.34141
C         -4.44727        1.12626        1.04126
C         -3.90563        2.43159        1.62958
N         -4.29225        3.59685        0.84050
H          2.35855       -1.85952        1.02942
H          2.40717       -2.35933       -0.67295
H          3.56207       -1.16194       -0.06337
H         -0.37571       -2.27165        0.60720
H         -2.77381       -1.55288        0.52320
H         -1.78225        2.34621       -1.20985
H          2.90834        1.06066       -1.09025
H         -4.10264        1.55251       -1.06677
H         -4.44566       -0.12017       -0.71583
H         -5.54071        1.19628        0.97194
H         -4.23819        0.31520        1.75020
H         -4.31417        2.55281        2.63912
H         -2.81604        2.39620        1.73000
H         -3.95980        4.43950        1.30947
H         -3.81092        3.57807       -0.05743

--Link1--
%chk=JID_4479.chk
%mem=8GB
%nprocshared=4
# B3LYP/6-311++G(d,p) empiricaldispersion=gd3bj scf=xqc pop=npa geom=check

CID_84719378_JID_4479_Energie_neutraal

0 1

--Link1--
%chk=JID_4479.chk
%mem=8GB
%nprocshared=4
# B3LYP/6-311++G(d,p) empiricaldispersion=gd3bj scf=xqc pop=npa geom=check

CID_84719378_JID_4479_Energie_kation

1 2

--Link1--
%chk=JID_4479.chk
%mem=8GB
%nprocshared=4
# B3LYP/6-311++G(d,p) empiricaldispersion=gd3bj scf=xqc pop=npa geom=check

CID_84719378_JID_4479_Energie_anion

-1 2
