%chk=JID_9286.chk
%mem=8GB
%nprocshared=4
# opt freq B3LYP/6-31G(d) empiricaldispersion=gd3bj scf=xqc

CID_107440258_JID_9286_neutraal

0 1
C         -2.19800       -0.07500       -0.00500
C         -0.73032       -0.13679       -0.08348
N          0.07142       -1.17530       -0.16259
N          1.35053       -0.66281       -0.24871
C          1.23508        0.64734       -0.21879
O         -0.05892        1.05293       -0.08956
N          2.25712        1.54087       -0.30561
C          2.20903        2.89907       -0.32364
O          3.27217        3.51008       -0.48732
C          0.89794        3.67548       -0.16502
N          0.10937        3.64677       -1.40225
C         -1.31153        3.99008       -1.23131
C         -1.60902        5.48268       -1.14901
O         -1.90806        6.15890       -2.12922
N         -1.53221        6.04465        0.09296
C          0.75090        4.24387       -2.59688
C          1.17280        5.70629       -2.47799
O          1.23475        6.39956       -1.47491
O          1.53584        6.21790       -3.67490
H         -2.51240        0.44674        0.90369
H         -2.60549        0.45762       -0.86940
H         -2.62766       -1.08089        0.01150
H          3.17397        1.13493       -0.42658
H          0.34896        3.24070        0.67784
H          1.14145        4.69112        0.15968
H         -1.88341        3.58889       -2.07745
H         -1.72616        3.49316       -0.34537
H         -0.92152        5.63851        0.78718
H         -1.58075        7.05685        0.09415
H          1.64584        3.66531       -2.85218
H          0.06587        4.15311       -3.44866
H          1.75536        7.15123       -3.47229

--Link1--
%chk=JID_9286.chk
%mem=8GB
%nprocshared=4
# B3LYP/6-311++G(d,p) empiricaldispersion=gd3bj scf=xqc pop=npa geom=check

CID_107440258_JID_9286_Energie_neutraal

0 1

--Link1--
%chk=JID_9286.chk
%mem=8GB
%nprocshared=4
# B3LYP/6-311++G(d,p) empiricaldispersion=gd3bj scf=xqc pop=npa geom=check

CID_107440258_JID_9286_Energie_kation

1 2

--Link1--
%chk=JID_9286.chk
%mem=8GB
%nprocshared=4
# B3LYP/6-311++G(d,p) empiricaldispersion=gd3bj scf=xqc pop=npa geom=check

CID_107440258_JID_9286_Energie_anion

-1 2
