%chk=JID_3372.chk
%mem=8GB
%nprocshared=4
# opt freq B3LYP/6-31G(d) empiricaldispersion=gd3bj scf=xqc

CID_116464015_JID_3372_neutraal

0 1
C          0.93033       -0.03238        0.06401
C          1.31027       -1.36016       -0.56694
O          1.62542       -2.32960        0.44120
C          2.89089       -2.26902        0.95660
O          3.73116       -1.46052        0.57024
C          3.13631       -3.27032        2.01649
N          4.29016       -3.24650        2.71846
N          4.18086       -4.24419        3.60153
C          3.02446       -4.94681        3.48918
C          2.30422       -4.35419        2.46737
C          0.97193       -4.78655        1.97180
N         -0.04812       -4.06127        2.71360
C          5.25074       -4.47267        4.54221
H          0.11223       -0.16725        0.77918
H          0.61641        0.68341       -0.70101
H          1.76990        0.39784        0.61856
H          0.45627       -1.75361       -1.12834
H          2.13602       -1.24782       -1.27876
H          2.80235       -5.79105        4.12678
H          0.86245       -4.61672        0.89744
H          0.84255       -5.86312        2.13414
H         -0.96587       -4.40470        2.43946
H          0.05205       -4.26710        3.70613
H          6.16812       -4.66841        3.98145
H          5.36112       -3.57872        5.16128
H          5.00618       -5.33311        5.16985

--Link1--
%chk=JID_3372.chk
%mem=8GB
%nprocshared=4
# B3LYP/6-311++G(d,p) empiricaldispersion=gd3bj scf=xqc pop=npa geom=check

CID_116464015_JID_3372_Energie_neutraal

0 1

--Link1--
%chk=JID_3372.chk
%mem=8GB
%nprocshared=4
# B3LYP/6-311++G(d,p) empiricaldispersion=gd3bj scf=xqc pop=npa geom=check

CID_116464015_JID_3372_Energie_kation

1 2

--Link1--
%chk=JID_3372.chk
%mem=8GB
%nprocshared=4
# B3LYP/6-311++G(d,p) empiricaldispersion=gd3bj scf=xqc pop=npa geom=check

CID_116464015_JID_3372_Energie_anion

-1 2
