%chk=JID_5509.chk
%mem=8GB
%nprocshared=4
# opt freq B3LYP/6-31G(d) empiricaldispersion=gd3bj scf=xqc

CID_79648974_JID_5509_neutraal

0 1
C          0.96883       -0.00651        0.09479
C          1.46403        1.28974        0.71021
O          1.63121        1.16447        2.12054
C          2.87447        0.55723        2.48988
C          2.95662        0.44843        4.01460
O          2.39014       -0.76275        4.52889
C          0.97417       -0.86676        4.41895
C          0.22004        0.13561        5.29822
C         -0.89806       -0.64676        5.99196
C         -0.92637       -2.03230        5.33465
C          0.53721       -2.23336        4.94294
C         -1.43090       -3.13031        6.29789
O         -0.83938       -4.17878        6.52990
N         -2.67422       -2.91081        6.83067
N         -1.79334       -2.01084        4.13356
H          1.71619       -0.80059        0.18149
H          0.73952        0.13315       -0.96559
H          0.06781       -0.35709        0.60877
H          2.39216        1.62842        0.23626
H          0.71088        2.06772        0.54760
H          2.96466       -0.43314        2.03332
H          3.68447        1.20278        2.13299
H          4.01330        0.41701        4.30051
H          2.50647        1.31664        4.50686
H          0.66621       -0.77755        3.37172
H         -0.19863        0.93637        4.67807
H          0.86771        0.60910        6.04413
H         -1.85575       -0.11775        5.92136
H         -0.66942       -0.73188        7.06237
H          1.14742       -2.52684        5.80797
H          0.68043       -3.01756        4.19005
H         -3.10065       -1.99497        6.83314
H         -3.00175       -3.59088        7.50506
H         -1.68876       -2.90705        3.65221
H         -2.76890       -1.98236        4.42998

--Link1--
%chk=JID_5509.chk
%mem=8GB
%nprocshared=4
# B3LYP/6-311++G(d,p) empiricaldispersion=gd3bj scf=xqc pop=npa geom=check

CID_79648974_JID_5509_Energie_neutraal

0 1

--Link1--
%chk=JID_5509.chk
%mem=8GB
%nprocshared=4
# B3LYP/6-311++G(d,p) empiricaldispersion=gd3bj scf=xqc pop=npa geom=check

CID_79648974_JID_5509_Energie_kation

1 2

--Link1--
%chk=JID_5509.chk
%mem=8GB
%nprocshared=4
# B3LYP/6-311++G(d,p) empiricaldispersion=gd3bj scf=xqc pop=npa geom=check

CID_79648974_JID_5509_Energie_anion

-1 2
