%chk=JID_7711.chk
%mem=8GB
%nprocshared=4
# opt freq B3LYP/6-31G(d) empiricaldispersion=gd3bj scf=xqc

CID_83027596_JID_7711_neutraal

0 1
C          0.95811        0.06621        0.06214
C          0.91721       -0.00176        1.58486
C          1.77500        1.07750        2.25026
N          1.16907        2.40316        2.12013
C          0.18288        2.83596        3.01121
C         -0.82232        3.70603        2.54170
C         -1.80637        4.25978        3.37520
C         -1.78505        3.89840        4.72795
C         -0.77688        3.06213        5.22148
C          0.20771        2.54101        4.37403
N         -0.74613        2.73758        6.65123
O         -1.52233        3.35073        7.39835
O          0.05242        1.86891        7.03066
N         -2.88324        5.06443        2.93069
N         -3.02835        5.66630        1.67626
C         -1.96445        6.59260        1.32370
C         -3.42505        4.73767        0.63068
H          0.53332        1.00332       -0.30948
H          0.37705       -0.75688       -0.36596
H          1.98541       -0.01806       -0.30634
H         -0.12252        0.06430        1.92574
H          1.29333       -0.98494        1.89175
H          1.96276        0.80906        3.29394
H          2.76005        1.10728        1.77005
H          0.95547        2.63463        1.15332
H         -0.82290        3.94805        1.48545
H         -2.55482        4.27970        5.39595
H          1.00394        1.93100        4.78915
H         -3.32050        5.59111        3.68898
H         -1.02734        6.09833        1.05417
H         -2.27108        7.20561        0.46875
H         -1.76233        7.28614        2.14793
H         -2.62503        4.06130        0.31943
H         -4.27820        4.13023        0.95433
H         -3.75536        5.28992       -0.25624

--Link1--
%chk=JID_7711.chk
%mem=8GB
%nprocshared=4
# B3LYP/6-311++G(d,p) empiricaldispersion=gd3bj scf=xqc pop=npa geom=check

CID_83027596_JID_7711_Energie_neutraal

0 1

--Link1--
%chk=JID_7711.chk
%mem=8GB
%nprocshared=4
# B3LYP/6-311++G(d,p) empiricaldispersion=gd3bj scf=xqc pop=npa geom=check

CID_83027596_JID_7711_Energie_kation

1 2

--Link1--
%chk=JID_7711.chk
%mem=8GB
%nprocshared=4
# B3LYP/6-311++G(d,p) empiricaldispersion=gd3bj scf=xqc pop=npa geom=check

CID_83027596_JID_7711_Energie_anion

-1 2
