%chk=JID_10744.chk
%mem=8GB
%nprocshared=4
# opt freq B3LYP/6-31G(d) empiricaldispersion=gd3bj scf=xqc

CID_105113702_JID_10744_neutraal

0 1
C          1.00327        0.03992       -0.09163
C          0.39730       -0.55584        1.18019
C         -0.05698        0.43731        2.27413
C         -0.43015        1.83925        1.79424
C         -1.69589        2.36804        2.45284
O         -1.70984        2.60380        3.66318
C         -2.96533        2.50017        1.63128
C         -2.67759        3.15861        0.32475
N         -2.36045        2.49693       -0.76868
C         -1.99709        3.37710       -1.77933
C         -2.14643        4.71095       -1.45124
S         -2.68238        4.86786        0.17170
C         -1.49159        2.88179       -3.05780
C         -0.69820        3.67212       -3.90293
C         -0.20293        3.15588       -5.10493
C         -0.49126        1.84431       -5.47506
C         -1.27229        1.04553       -4.64396
C         -1.76676        1.56083       -3.44276
O         -0.60032       -1.53604        0.86862
C         -1.82792       -1.04747        0.35517
H          0.26818        0.54302       -0.72462
H          1.42682       -0.76135       -0.70803
H          1.80441        0.74596        0.14773
H          1.19837       -1.14921        1.64068
H         -0.86472       -0.00800        2.86731
H          0.78462        0.56221        2.96987
H          0.37424        2.54533        2.03564
H         -0.53818        1.87631        0.71574
H         -3.38207        1.50162        1.47316
H         -3.70020        3.07613        2.20460
H         -1.96435        5.58890       -2.05326
H         -0.43348        4.69144       -3.63592
H          0.41540        3.77684       -5.74854
H         -0.10281        1.44300       -6.40770
H         -1.49469        0.01953       -4.92590
H         -2.37040        0.91967       -2.80346
H         -2.38126       -0.51814        1.13247
H         -1.68264       -0.40712       -0.51651
H         -2.42979       -1.90754        0.04817

--Link1--
%chk=JID_10744.chk
%mem=8GB
%nprocshared=4
# B3LYP/6-311++G(d,p) empiricaldispersion=gd3bj scf=xqc pop=npa geom=check

CID_105113702_JID_10744_Energie_neutraal

0 1

--Link1--
%chk=JID_10744.chk
%mem=8GB
%nprocshared=4
# B3LYP/6-311++G(d,p) empiricaldispersion=gd3bj scf=xqc pop=npa geom=check

CID_105113702_JID_10744_Energie_kation

1 2

--Link1--
%chk=JID_10744.chk
%mem=8GB
%nprocshared=4
# B3LYP/6-311++G(d,p) empiricaldispersion=gd3bj scf=xqc pop=npa geom=check

CID_105113702_JID_10744_Energie_anion

-1 2
