%chk=JID_1492.chk
%mem=8GB
%nprocshared=4
# opt freq B3LYP/6-31G(d) empiricaldispersion=gd3bj scf=xqc

CID_91035117_JID_1492_neutraal

0 1
C          1.07370       -0.02288       -0.06360
C         -0.30219        0.53491        0.07234
C         -0.50185        2.01544        0.25835
C         -0.98177        1.35080       -1.01196
C         -0.32823        1.69305       -2.33142
C         -0.35022        0.47957       -3.26594
C         -1.04811        2.84816       -2.99264
C         -0.93051        4.25646       -2.45126
C         -0.32212        3.91874       -3.79034
C          1.16002        3.95167       -3.95302
C         -2.14042        5.12456       -2.37671
H          1.75405        0.64891       -0.59484
H          1.04285       -0.97686       -0.59852
H          1.49823       -0.20846        0.92835
H         -0.93325       -0.12911        0.65501
H         -1.25160        2.34419        0.96933
H          0.36585        2.66424        0.20970
H         -2.05300        1.20569       -1.12172
H          0.71833        1.96214       -2.15621
H         -1.37602        0.14184       -3.45372
H          0.10245        0.72340       -4.23288
H          0.19986       -0.36326       -2.83701
H         -2.02712        2.54552       -3.35638
H         -0.26734        4.42948       -1.61124
H         -0.81779        4.26939       -4.69020
H          1.48319        3.16957       -4.64645
H          1.46699        4.91854       -4.36478
H          1.69110        3.81572       -3.00570
H         -2.70609        4.90404       -1.46618
H         -1.84708        6.17844       -2.35093
H         -2.80582        4.97786       -3.23414

--Link1--
%chk=JID_1492.chk
%mem=8GB
%nprocshared=4
# B3LYP/6-311++G(d,p) empiricaldispersion=gd3bj scf=xqc pop=npa geom=check

CID_91035117_JID_1492_Energie_neutraal

0 1

--Link1--
%chk=JID_1492.chk
%mem=8GB
%nprocshared=4
# B3LYP/6-311++G(d,p) empiricaldispersion=gd3bj scf=xqc pop=npa geom=check

CID_91035117_JID_1492_Energie_kation

1 2

--Link1--
%chk=JID_1492.chk
%mem=8GB
%nprocshared=4
# B3LYP/6-311++G(d,p) empiricaldispersion=gd3bj scf=xqc pop=npa geom=check

CID_91035117_JID_1492_Energie_anion

-1 2
