%chk=JID_10587.chk
%mem=8GB
%nprocshared=4
# opt freq B3LYP/6-31G(d) empiricaldispersion=gd3bj scf=xqc

CID_64549162_JID_10587_neutraal

0 1
C          2.49200        0.00400       -0.01400
C          1.01082        0.07636        0.20292
C          0.20293       -1.03192       -0.06797
C         -1.18777       -0.98994        0.14491
C         -1.77414        0.18579        0.64672
C         -0.96092        1.28583        0.93774
C          0.41998        1.22874        0.72386
O         -3.13618        0.16900        0.79514
C         -3.74646        1.30641        1.39080
C         -2.00701       -2.21726       -0.19268
O         -1.89975       -2.57743       -1.57214
C         -2.51697       -1.66251       -2.48215
C         -4.05812       -1.87492       -2.72875
C         -4.43661       -0.88288       -3.86151
C         -5.89150       -0.81263       -4.31689
C         -6.46936       -2.12639       -4.83087
C         -6.85169       -3.07648       -3.70642
C         -5.71597       -3.90466       -3.11700
C         -4.29230       -3.34346       -3.15138
N         -4.81485       -1.56538       -1.50682
H          2.97650       -0.44724        0.85733
H          2.72567       -0.59420       -0.90102
H          2.91557        1.00103       -0.17451
H          0.64871       -1.94353       -0.46476
H         -1.36921        2.21182        1.32835
H          1.02955        2.09796        0.96074
H         -3.35829        1.48362        2.39915
H         -3.62863        2.19167        0.75744
H         -4.81796        1.10193        1.47790
H         -1.59713       -3.05617        0.38355
H         -3.04979       -2.14489        0.11866
H         -2.30740       -0.62470       -2.19680
H         -1.99586       -1.81690       -3.43567
H         -4.14643        0.13229       -3.55470
H         -3.82313       -1.10621       -4.74580
H         -5.94080       -0.08196       -5.13505
H         -6.52213       -0.40276       -3.51930
H         -5.79274       -2.60623       -5.54686
H         -7.38516       -1.88484       -5.38566
H         -7.60912       -3.77601       -4.08392
H         -7.35436       -2.51944       -2.90633
H         -5.69199       -4.86940       -3.64200
H         -5.97863       -4.15455       -2.08067
H         -3.88987       -3.48545       -4.16383
H         -3.69575       -4.00877       -2.51288
H         -4.50143       -0.67692       -1.11301
H         -5.80685       -1.46890       -1.70150

--Link1--
%chk=JID_10587.chk
%mem=8GB
%nprocshared=4
# B3LYP/6-311++G(d,p) empiricaldispersion=gd3bj scf=xqc pop=npa geom=check

CID_64549162_JID_10587_Energie_neutraal

0 1

--Link1--
%chk=JID_10587.chk
%mem=8GB
%nprocshared=4
# B3LYP/6-311++G(d,p) empiricaldispersion=gd3bj scf=xqc pop=npa geom=check

CID_64549162_JID_10587_Energie_kation

1 2

--Link1--
%chk=JID_10587.chk
%mem=8GB
%nprocshared=4
# B3LYP/6-311++G(d,p) empiricaldispersion=gd3bj scf=xqc pop=npa geom=check

CID_64549162_JID_10587_Energie_anion

-1 2
