%chk=JID_9392.chk
%mem=8GB
%nprocshared=4
# opt freq B3LYP/6-31G(d) empiricaldispersion=gd3bj scf=xqc

CID_84190811_JID_9392_neutraal

0 1
C          1.00075       -0.03159       -0.09488
C          0.45111       -1.05565       -1.12696
C          1.10626       -0.74392       -2.49077
C          0.73942       -1.65364       -3.66341
N          1.49699       -2.89441       -3.64859
C          0.95887       -3.94064       -2.76734
C          0.11940       -3.57704       -1.50420
N          0.68069       -2.46418       -0.66740
C          1.87254       -2.73809        0.01686
C          3.11528       -2.88736       -0.60727
C          4.27246       -3.16092        0.13065
C          4.20796       -3.27809        1.51553
C          2.98804       -3.11262        2.16155
C          1.83727       -2.84141        1.41642
C         -0.17048       -4.89209       -0.69268
N         -1.50387       -4.96725       -0.04098
C         -1.75802       -6.33648        0.41749
C         -1.60585       -4.05209        1.09447
C         -1.06958       -0.76365       -1.19316
H          0.57410       -0.19922        0.90078
H          0.75271        0.99569       -0.38834
H          2.09188       -0.07577       -0.00782
H          0.83072        0.28117       -2.77752
H          2.19924       -0.72009       -2.38706
H          1.03037       -1.12070       -4.57771
H         -0.33723       -1.82609       -3.75730
H          1.57506       -3.26957       -4.59310
H          1.80103       -4.57965       -2.47591
H          0.32139       -4.57968       -3.39446
H         -0.85617       -3.26043       -1.88632
H          3.21044       -2.77840       -1.68239
H          5.22337       -3.27412       -0.38281
H          5.10682       -3.48681        2.08868
H          2.92717       -3.18735        3.24345
H          0.89516       -2.69565        1.93636
H         -0.13971       -5.71909       -1.41528
H          0.62564       -5.10338        0.03081
H         -1.01394       -6.67322        1.14864
H         -2.75098       -6.41225        0.87495
H         -1.75263       -7.03387       -0.42761
H         -0.86940       -4.27654        1.87334
H         -1.48883       -3.01279        0.78433
H         -2.60238       -4.11781        1.54669
H         -1.55164       -0.96583       -0.23078
H         -1.25635        0.28946       -1.43637
H         -1.59387       -1.35037       -1.95082

--Link1--
%chk=JID_9392.chk
%mem=8GB
%nprocshared=4
# B3LYP/6-311++G(d,p) empiricaldispersion=gd3bj scf=xqc pop=npa geom=check

CID_84190811_JID_9392_Energie_neutraal

0 1

--Link1--
%chk=JID_9392.chk
%mem=8GB
%nprocshared=4
# B3LYP/6-311++G(d,p) empiricaldispersion=gd3bj scf=xqc pop=npa geom=check

CID_84190811_JID_9392_Energie_kation

1 2

--Link1--
%chk=JID_9392.chk
%mem=8GB
%nprocshared=4
# B3LYP/6-311++G(d,p) empiricaldispersion=gd3bj scf=xqc pop=npa geom=check

CID_84190811_JID_9392_Energie_anion

-1 2
