%chk=JID_8840.chk
%mem=8GB
%nprocshared=4
# opt freq B3LYP/6-31G(d) empiricaldispersion=gd3bj scf=xqc

CID_65767484_JID_8840_neutraal

0 1
C          1.04467        0.08902       -0.00898
C          1.66825       -1.10214       -0.71662
N          1.80812       -2.22652        0.25684
C          0.63068       -3.15390        0.23093
C          0.78597       -4.33752       -0.71407
C          0.24733       -3.59256        1.63963
S          3.40995       -2.80884        0.38915
O          3.66392       -3.71263       -0.71096
O          4.26079       -1.65455        0.60531
C          3.56989       -3.71815        1.91135
C          3.48299       -3.29978        3.22660
C          3.67613       -4.36504        4.15093
C          3.90969       -5.56850        3.51603
S          3.92118       -5.38666        1.81274
C          4.15096       -6.91640        4.14016
C          2.84665       -7.60724        4.57315
N          2.06359       -8.07910        3.42533
C          0.78920       -8.63959        3.84961
H          0.05231       -0.15533        0.38357
H          0.93976        0.93049       -0.70066
H          1.66643        0.41243        0.83254
H          1.05471       -1.40419       -1.57283
H          2.63623       -0.80041       -1.12999
H         -0.22874       -2.57605       -0.13673
H          1.50846       -5.06991       -0.34372
H         -0.17002       -4.86161       -0.82416
H          1.10202       -4.01234       -1.71049
H          0.24739       -2.74482        2.33277
H         -0.75916       -4.02589        1.63975
H          0.91857       -4.35836        2.03275
H          3.28983       -2.26866        3.49873
H          3.64567       -4.25226        5.22844
H          4.71974       -7.56843        3.46523
H          4.78084       -6.77526        5.02818
H          3.10804       -8.46802        5.20026
H          2.25005       -6.91849        5.18453
H          1.89949       -7.30179        2.78431
H          0.16908       -7.89070        4.35290
H          0.23915       -8.99806        2.97406
H          0.93508       -9.49315        4.51937

--Link1--
%chk=JID_8840.chk
%mem=8GB
%nprocshared=4
# B3LYP/6-311++G(d,p) empiricaldispersion=gd3bj scf=xqc pop=npa geom=check

CID_65767484_JID_8840_Energie_neutraal

0 1

--Link1--
%chk=JID_8840.chk
%mem=8GB
%nprocshared=4
# B3LYP/6-311++G(d,p) empiricaldispersion=gd3bj scf=xqc pop=npa geom=check

CID_65767484_JID_8840_Energie_kation

1 2

--Link1--
%chk=JID_8840.chk
%mem=8GB
%nprocshared=4
# B3LYP/6-311++G(d,p) empiricaldispersion=gd3bj scf=xqc pop=npa geom=check

CID_65767484_JID_8840_Energie_anion

-1 2
