%chk=JID_6333.chk
%mem=8GB
%nprocshared=4
# opt freq B3LYP/6-31G(d) empiricaldispersion=gd3bj scf=xqc

CID_103377548_JID_6333_neutraal

0 1
C          0.99667       -0.07168        0.06965
C          0.05825        0.48540       -0.98891
C          0.16074       -0.23071       -2.33540
N         -0.07678       -1.66017       -2.29268
C          0.90573       -2.60281       -2.43870
N          0.42092       -3.82058       -2.40410
C         -0.92690       -3.66418       -2.23593
C         -1.27556       -2.32639       -2.16358
C         -2.61365       -1.67367       -1.98471
C         -3.74216       -2.43212       -2.71450
O         -4.82328       -2.76922       -2.24984
O         -3.48440       -2.65887       -4.02327
O         -2.80650       -1.29682       -0.62513
C         -2.65494       -2.27244        0.40923
C         -3.92852       -3.05690        0.71392
O         -4.07713       -4.16175       -0.17164
H          0.72860       -1.09695        0.34257
H          0.94262        0.53764        0.97754
H          2.03353       -0.06527       -0.28101
H         -0.96704        0.44941       -0.61028
H          0.29249        1.54548       -1.14394
H         -0.55233        0.19691       -3.04887
H          1.15959       -0.07372       -2.76109
H          1.95043       -2.34909       -2.56584
H         -1.58161       -4.52490       -2.16441
H         -2.59820       -0.71425       -2.51836
H         -4.27399       -3.13429       -4.35573
H         -1.80736       -2.93843        0.23240
H         -2.41076       -1.69116        1.30576
H         -3.86694       -3.47328        1.72402
H         -4.81936       -2.42365        0.65089
H         -4.67341       -3.85406       -0.88668

--Link1--
%chk=JID_6333.chk
%mem=8GB
%nprocshared=4
# B3LYP/6-311++G(d,p) empiricaldispersion=gd3bj scf=xqc pop=npa geom=check

CID_103377548_JID_6333_Energie_neutraal

0 1

--Link1--
%chk=JID_6333.chk
%mem=8GB
%nprocshared=4
# B3LYP/6-311++G(d,p) empiricaldispersion=gd3bj scf=xqc pop=npa geom=check

CID_103377548_JID_6333_Energie_kation

1 2

--Link1--
%chk=JID_6333.chk
%mem=8GB
%nprocshared=4
# B3LYP/6-311++G(d,p) empiricaldispersion=gd3bj scf=xqc pop=npa geom=check

CID_103377548_JID_6333_Energie_anion

-1 2
