%chk=JID_7828.chk
%mem=8GB
%nprocshared=4
# opt freq B3LYP/6-31G(d) empiricaldispersion=gd3bj scf=xqc

CID_84224427_JID_7828_neutraal

0 1
C          0.93805        0.07802       -0.00862
C         -0.23722        0.31592       -0.93960
N          0.15473        0.99686       -2.15859
C         -0.04011        2.31025       -2.46004
C          0.46285        2.47883       -3.72954
C          0.96229        1.21241       -4.10761
N          0.74085        0.30572       -3.15151
N          1.54061        0.78180       -5.27536
C          1.88421        1.46734       -6.41003
O          1.92524        0.84440       -7.47234
C          2.24970        2.85958       -6.34004
C          2.97820        3.55803       -5.39075
C          3.06289        4.87435       -5.87248
N          2.45401        5.01709       -7.04132
N          2.02002        3.77635       -7.33695
C          1.35411        3.54586       -8.59889
N          3.67489        5.87051       -5.22937
H          1.69924       -0.54972       -0.48382
H          0.60404       -0.42369        0.90473
H          1.41393        1.02316        0.27369
H         -0.70457       -0.63205       -1.22791
H         -0.99788        0.92841       -0.44338
H         -0.52093        2.99576       -1.77641
H          0.43786        3.39855       -4.29499
H          1.53497       -0.22434       -5.36479
H          3.39662        3.15917       -4.47782
H          1.10659        4.50636       -9.05898
H          2.03338        2.98685       -9.24672
H          0.43469        2.98434       -8.41636
H          3.53018        6.80931       -5.58311
H          3.90682        5.81567       -4.24682

--Link1--
%chk=JID_7828.chk
%mem=8GB
%nprocshared=4
# B3LYP/6-311++G(d,p) empiricaldispersion=gd3bj scf=xqc pop=npa geom=check

CID_84224427_JID_7828_Energie_neutraal

0 1

--Link1--
%chk=JID_7828.chk
%mem=8GB
%nprocshared=4
# B3LYP/6-311++G(d,p) empiricaldispersion=gd3bj scf=xqc pop=npa geom=check

CID_84224427_JID_7828_Energie_kation

1 2

--Link1--
%chk=JID_7828.chk
%mem=8GB
%nprocshared=4
# B3LYP/6-311++G(d,p) empiricaldispersion=gd3bj scf=xqc pop=npa geom=check

CID_84224427_JID_7828_Energie_anion

-1 2
