%chk=JID_6826.chk
%mem=8GB
%nprocshared=4
# opt freq B3LYP/6-31G(d) empiricaldispersion=gd3bj scf=xqc

CID_135170528_JID_6826_neutraal

0 1
C          1.01502       -0.01952       -0.09692
C          0.33393        0.79588        1.00588
C          0.96105        2.19258        1.07487
C         -1.15951        0.80907        0.81051
C         -1.94223        1.82924        0.42456
C         -3.32840        1.33193        0.37843
O         -4.27452        1.97917       -0.02991
N         -3.31071        0.03016        0.82376
C         -1.97655       -0.42524        1.06268
O         -1.82218       -1.02018        2.35004
C         -2.05330       -0.28330        3.46274
O         -2.35600        0.89716        3.52180
C         -1.88794       -1.07693        4.70907
C         -2.93573       -2.10050        5.08328
C         -1.54851       -2.54872        4.72520
C         -4.44251       -0.86013        0.78856
H          0.82718        0.41166       -1.08678
H          0.65792       -1.05487       -0.10646
H          2.09930       -0.04971        0.05677
H          0.54498        0.31015        1.96722
H          0.85378        2.73384        0.12837
H          0.50026        2.79206        1.86786
H          2.03171        2.12183        1.29685
H         -1.68231        2.84072        0.16943
H         -1.74045       -1.18882        0.31275
H         -1.47968       -0.48682        5.52502
H         -3.23995       -2.15348        6.12238
H         -3.73319       -2.30624        4.37778
H         -1.41159       -3.07435        3.78753
H         -0.90954       -2.90849        5.52436
H         -4.30803       -1.56901       -0.03309
H         -4.50644       -1.40142        1.73597
H         -5.36632       -0.29797        0.62769

--Link1--
%chk=JID_6826.chk
%mem=8GB
%nprocshared=4
# B3LYP/6-311++G(d,p) empiricaldispersion=gd3bj scf=xqc pop=npa geom=check

CID_135170528_JID_6826_Energie_neutraal

0 1

--Link1--
%chk=JID_6826.chk
%mem=8GB
%nprocshared=4
# B3LYP/6-311++G(d,p) empiricaldispersion=gd3bj scf=xqc pop=npa geom=check

CID_135170528_JID_6826_Energie_kation

1 2

--Link1--
%chk=JID_6826.chk
%mem=8GB
%nprocshared=4
# B3LYP/6-311++G(d,p) empiricaldispersion=gd3bj scf=xqc pop=npa geom=check

CID_135170528_JID_6826_Energie_anion

-1 2
