%chk=JID_9589.chk
%mem=8GB
%nprocshared=4
# opt freq B3LYP/6-31G(d) empiricaldispersion=gd3bj scf=xqc

CID_62553778_JID_9589_neutraal

0 1
C          0.92686       -0.06137       -0.02975
C          0.99256        0.53966       -1.43424
C          1.64677       -0.45874       -2.39392
C         -0.39229        0.94726       -1.97874
C         -1.21182        1.91132       -1.10957
N         -0.50010        3.15854       -0.86122
C         -1.32436        4.20518       -0.24658
C         -2.03955        3.92134        1.10405
N         -1.25246        4.16158        2.31873
C         -2.09248        4.35926        3.49662
C         -0.11047        3.27972        2.57573
C         -0.33021        1.96455        3.30507
C          0.52628        1.62497        4.36478
C          0.42602        0.38531        5.00414
C         -0.52188       -0.55115        4.59548
C         -1.38480       -0.22543        3.55284
C         -1.28373        1.01742        2.91301
O         -0.50232       -1.73157        5.28474
C         -1.33026       -2.77536        4.78679
H          0.22240       -0.89860        0.01316
H          0.61597        0.68800        0.70027
H          1.90988       -0.42860        0.28414
H          1.63638        1.42690       -1.39624
H          1.06335       -1.38326       -2.46433
H          1.73230       -0.03376       -3.39961
H          2.65518       -0.72017       -2.05604
H         -0.26004        1.39851       -2.97139
H         -0.99609        0.04326       -2.13476
H         -2.15118        2.11848       -1.63659
H         -1.47143        1.41446       -0.17168
H          0.32934        2.98825       -0.29995
H         -0.70395        5.10353       -0.13742
H         -2.09517        4.48242       -0.97804
H         -2.87605        4.63510        1.11944
H         -2.52170        2.94226        1.10047
H         -2.70615        3.48184        3.72606
H         -1.48592        4.60235        4.37645
H         -2.76666        5.21026        3.34675
H          0.45383        3.06991        1.66571
H          0.58770        3.87915        3.17686
H          1.29539        2.31978        4.69635
H          1.10579        0.14311        5.81741
H         -2.14539       -0.91556        3.20374
H         -1.96110        1.21738        2.09240
H         -2.38963       -2.52067        4.89386
H         -1.08465       -3.01647        3.74681
H         -1.13978       -3.66939        5.38826

--Link1--
%chk=JID_9589.chk
%mem=8GB
%nprocshared=4
# B3LYP/6-311++G(d,p) empiricaldispersion=gd3bj scf=xqc pop=npa geom=check

CID_62553778_JID_9589_Energie_neutraal

0 1

--Link1--
%chk=JID_9589.chk
%mem=8GB
%nprocshared=4
# B3LYP/6-311++G(d,p) empiricaldispersion=gd3bj scf=xqc pop=npa geom=check

CID_62553778_JID_9589_Energie_kation

1 2

--Link1--
%chk=JID_9589.chk
%mem=8GB
%nprocshared=4
# B3LYP/6-311++G(d,p) empiricaldispersion=gd3bj scf=xqc pop=npa geom=check

CID_62553778_JID_9589_Energie_anion

-1 2
