%chk=JID_6054.chk
%mem=8GB
%nprocshared=4
# opt freq B3LYP/6-31G(d) empiricaldispersion=gd3bj scf=xqc

CID_61831072_JID_6054_neutraal

0 1
C          0.99653        0.08809       -0.04720
C          0.96165        1.60938        0.10168
C          1.39892        2.46552       -1.15335
C          0.74816        1.88552       -2.44572
C         -0.77569        1.93356       -2.49555
C          0.90704        3.91902       -0.87526
N          1.63383        4.64126        0.16698
C          2.95837        2.36964       -1.29192
O          3.56620        1.56204       -0.57432
N          3.67792        3.09904       -2.23999
C          3.18621        4.24607       -2.98838
C          5.13822        2.92165       -2.26906
C          5.92130        4.03516       -1.55585
C          5.76398        4.07497       -0.02423
C          6.44933        2.88701        0.65415
C          6.35092        5.37934        0.52385
H          0.22477       -0.26761       -0.73550
H          0.79877       -0.37955        0.92342
H          1.96379       -0.27783       -0.39907
H         -0.06229        1.87689        0.39322
H          1.59159        1.87298        0.96138
H          1.11364        2.40148       -3.33654
H          1.07525        0.84806       -2.58913
H         -1.14150        2.96438       -2.51408
H         -1.13098        1.44534       -3.40928
H         -1.23335        1.41836       -1.64738
H          0.91404        4.52982       -1.77962
H         -0.14697        3.89198       -0.57072
H          1.14523        5.50706        0.39241
H          1.65804        4.09609        1.02882
H          3.21919        5.12985       -2.34542
H          3.82018        4.41587       -3.86444
H          2.17397        4.09941       -3.35245
H          5.42084        1.94097       -1.87413
H          5.43209        2.90586       -3.32629
H          6.98478        3.91459       -1.80069
H          5.62396        5.00430       -1.97489
H          4.69997        4.06063        0.23545
H          7.52137        2.86715        0.42977
H          6.33551        2.94548        1.74210
H          6.02208        1.93372        0.33316
H          5.84170        6.24704        0.09106
H          6.23189        5.43335        1.61128
H          7.41876        5.46299        0.29458

--Link1--
%chk=JID_6054.chk
%mem=8GB
%nprocshared=4
# B3LYP/6-311++G(d,p) empiricaldispersion=gd3bj scf=xqc pop=npa geom=check

CID_61831072_JID_6054_Energie_neutraal

0 1

--Link1--
%chk=JID_6054.chk
%mem=8GB
%nprocshared=4
# B3LYP/6-311++G(d,p) empiricaldispersion=gd3bj scf=xqc pop=npa geom=check

CID_61831072_JID_6054_Energie_kation

1 2

--Link1--
%chk=JID_6054.chk
%mem=8GB
%nprocshared=4
# B3LYP/6-311++G(d,p) empiricaldispersion=gd3bj scf=xqc pop=npa geom=check

CID_61831072_JID_6054_Energie_anion

-1 2
