%chk=JID_6439.chk
%mem=8GB
%nprocshared=4
# opt freq B3LYP/6-31G(d) empiricaldispersion=gd3bj scf=xqc

CID_150283008_JID_6439_neutraal

0 1
C          0.99432        0.09893       -0.01347
C          0.51858        1.41514        0.58654
C          0.85493        2.63859       -0.28533
C          0.25002        2.62388       -1.70305
C         -1.25764        2.38037       -1.78598
N         -1.97538        3.51551       -1.20454
N         -3.09958        3.26437       -0.73593
N         -4.12721        3.03019       -0.30239
C          0.55633        3.96658        0.40162
O          1.12699        5.00941        0.10451
O         -0.41996        3.84776        1.33919
C         -0.84267        5.05107        2.00327
C         -0.56533        4.96526        3.52007
C          0.94457        4.83958        3.78126
C         -1.08964        6.24318        4.19472
C         -1.27888        3.74452        4.12532
H          0.47016       -0.13191       -0.94525
H          0.80456       -0.72181        0.68575
H          2.06921        0.12662       -0.21803
H         -0.55845        1.35264        0.78023
H          0.99407        1.53716        1.56855
H          1.94904        2.63771       -0.40097
H          0.48291        3.57226       -2.20525
H          0.75135        1.84213       -2.28714
H         -1.54407        2.29106       -2.84060
H         -1.52800        1.43572       -1.30081
H         -0.37817        5.94830        1.57755
H         -1.92072        5.14231        1.82449
H          1.49191        5.67977        3.33947
H          1.15928        4.83143        4.85598
H          1.35193        3.91489        3.35837
H         -2.16723        6.36134        4.03432
H         -0.91464        6.22194        5.27625
H         -0.59290        7.13426        3.79463
H         -2.35807        3.78754        3.94026
H         -0.90415        2.80650        3.70120
H         -1.12929        3.69808        5.21002

--Link1--
%chk=JID_6439.chk
%mem=8GB
%nprocshared=4
# B3LYP/6-311++G(d,p) empiricaldispersion=gd3bj scf=xqc pop=npa geom=check

CID_150283008_JID_6439_Energie_neutraal

0 1

--Link1--
%chk=JID_6439.chk
%mem=8GB
%nprocshared=4
# B3LYP/6-311++G(d,p) empiricaldispersion=gd3bj scf=xqc pop=npa geom=check

CID_150283008_JID_6439_Energie_kation

1 2

--Link1--
%chk=JID_6439.chk
%mem=8GB
%nprocshared=4
# B3LYP/6-311++G(d,p) empiricaldispersion=gd3bj scf=xqc pop=npa geom=check

CID_150283008_JID_6439_Energie_anion

-1 2
