%chk=JID_6924.chk
%mem=8GB
%nprocshared=4
# opt freq B3LYP/6-31G(d) empiricaldispersion=gd3bj scf=xqc

CID_112555316_JID_6924_neutraal

0 1
C         -2.51700       -1.16700        0.01900
C         -1.17488       -0.59719       -0.34306
C         -0.12967       -1.47987       -0.66905
C          1.12173       -0.99939       -1.03484
C          1.29043        0.37487       -0.94998
N          0.30941        1.25978       -0.64873
C         -0.90952        0.78048       -0.35664
N         -1.94894        1.66685       -0.06141
C         -1.99068        3.01838        0.04052
O         -3.10186        3.52017        0.26291
C         -0.77487        3.91916       -0.04411
C         -0.32939        4.38254        1.34703
C          0.55180        3.37603        2.10889
C          1.97955        3.34640        1.55858
C          0.59283        3.73635        3.59681
N          2.19443       -1.87327       -1.22917
H         -3.27552       -0.84022       -0.69956
H         -2.50701       -2.26225        0.00949
H         -2.80548       -0.85298        1.02739
H         -0.29960       -2.55332       -0.63350
H          2.26089        0.82851       -1.13063
H         -2.86599        1.27226        0.08303
H          0.03984        3.51122       -0.63608
H         -1.10616        4.80231       -0.60796
H          0.21831        5.32807        1.24179
H         -1.22050        4.61102        1.94605
H          0.11909        2.37319        2.02520
H          2.47440        4.31500        1.69010
H          2.57751        2.59140        2.08030
H          2.00104        3.10624        0.49302
H         -0.41259        3.71184        4.03044
H          1.21149        3.02391        4.15288
H          1.00530        4.73902        3.75291
H          1.92513       -2.79241       -1.56745
H          2.96111       -1.47931       -1.76731

--Link1--
%chk=JID_6924.chk
%mem=8GB
%nprocshared=4
# B3LYP/6-311++G(d,p) empiricaldispersion=gd3bj scf=xqc pop=npa geom=check

CID_112555316_JID_6924_Energie_neutraal

0 1

--Link1--
%chk=JID_6924.chk
%mem=8GB
%nprocshared=4
# B3LYP/6-311++G(d,p) empiricaldispersion=gd3bj scf=xqc pop=npa geom=check

CID_112555316_JID_6924_Energie_kation

1 2

--Link1--
%chk=JID_6924.chk
%mem=8GB
%nprocshared=4
# B3LYP/6-311++G(d,p) empiricaldispersion=gd3bj scf=xqc pop=npa geom=check

CID_112555316_JID_6924_Energie_anion

-1 2
