%chk=JID_6281.chk
%mem=8GB
%nprocshared=4
# opt freq B3LYP/6-31G(d) empiricaldispersion=gd3bj scf=xqc

CID_115393494_JID_6281_neutraal

0 1
C          0.90834       -0.03662       -0.01606
C          0.65209        1.37128       -0.57221
C          0.76847        1.32043       -2.10257
C         -0.71898        1.93490       -0.10375
C         -0.94000        1.88618        1.41119
C         -1.08295        3.26775       -0.72356
N         -1.78807        3.32524       -1.84438
N         -2.21450        4.60450       -2.04042
C         -1.75769        5.32050       -1.04552
N         -0.97979        4.55659       -0.20459
C         -0.26460        5.08087        0.90229
C          1.00198        4.59858        1.23693
C          1.70497        5.15222        2.31054
C          1.15137        6.19568        3.04860
C         -0.10199        6.69737        2.70777
C         -0.80627        6.15121        1.63217
H          0.10545       -0.72643       -0.29719
H          0.98733       -0.02552        1.07534
H          1.85092       -0.44198       -0.40018
H          1.46401        2.00663       -0.21158
H         -0.04378        0.73273       -2.54346
H          0.74508        2.32399       -2.53869
H          1.71723        0.86381       -2.40561
H         -1.47532        1.24092       -0.50581
H         -0.09032        2.28664        1.96851
H         -1.83921        2.43826        1.70642
H         -1.07956        0.85225        1.74621
H         -1.90685        6.38343       -0.92490
H          1.49411        3.83446        0.65085
H          2.69480        4.77764        2.56157
H          1.70145        6.62448        3.88268
H         -0.53312        7.51443        3.28161
H         -1.79160        6.55538        1.41023

--Link1--
%chk=JID_6281.chk
%mem=8GB
%nprocshared=4
# B3LYP/6-311++G(d,p) empiricaldispersion=gd3bj scf=xqc pop=npa geom=check

CID_115393494_JID_6281_Energie_neutraal

0 1

--Link1--
%chk=JID_6281.chk
%mem=8GB
%nprocshared=4
# B3LYP/6-311++G(d,p) empiricaldispersion=gd3bj scf=xqc pop=npa geom=check

CID_115393494_JID_6281_Energie_kation

1 2

--Link1--
%chk=JID_6281.chk
%mem=8GB
%nprocshared=4
# B3LYP/6-311++G(d,p) empiricaldispersion=gd3bj scf=xqc pop=npa geom=check

CID_115393494_JID_6281_Energie_anion

-1 2
