%chk=JID_3160.chk
%mem=8GB
%nprocshared=4
# opt freq B3LYP/6-31G(d) empiricaldispersion=gd3bj scf=xqc

CID_79002367_JID_3160_neutraal

0 1
C          2.49200        0.00400       -0.01400
C          0.98983        0.03626        0.08393
C          0.29579       -1.18597        0.03479
C         -1.09385       -1.22798        0.12329
C         -1.81169       -0.04818        0.26396
C         -1.13946        1.17283        0.32006
C          0.26617        1.24220        0.24112
C          0.97381        2.60522        0.28412
C          0.95188        3.22893       -1.12989
O         -0.32546        3.75510       -1.47458
C          0.45268        3.56257        1.40344
C          0.62328        2.93562        2.79575
C          1.18131        4.91345        1.38841
H          2.93951        0.32029        0.93350
H          2.86021       -1.00412       -0.23320
H          2.83859        0.65417       -0.82338
H          0.83982       -2.12219       -0.07442
H         -1.61331       -2.18155        0.08303
H         -2.89597       -0.07527        0.33351
H         -1.73491        2.07653        0.43013
H          2.03007        2.42747        0.52051
H          1.66994        4.05286       -1.19146
H          1.24344        2.50212       -1.89712
H         -0.89878        2.99014       -1.65895
H         -0.61323        3.77302        1.25836
H          1.67372        2.69772        2.99584
H          0.28012        3.62428        3.57563
H          0.04102        2.01550        2.90079
H          0.96258        5.47541        0.47551
H          0.86212        5.53742        2.23051
H          2.26605        4.78026        1.45972

--Link1--
%chk=JID_3160.chk
%mem=8GB
%nprocshared=4
# B3LYP/6-311++G(d,p) empiricaldispersion=gd3bj scf=xqc pop=npa geom=check

CID_79002367_JID_3160_Energie_neutraal

0 1

--Link1--
%chk=JID_3160.chk
%mem=8GB
%nprocshared=4
# B3LYP/6-311++G(d,p) empiricaldispersion=gd3bj scf=xqc pop=npa geom=check

CID_79002367_JID_3160_Energie_kation

1 2

--Link1--
%chk=JID_3160.chk
%mem=8GB
%nprocshared=4
# B3LYP/6-311++G(d,p) empiricaldispersion=gd3bj scf=xqc pop=npa geom=check

CID_79002367_JID_3160_Energie_anion

-1 2
