%chk=JID_10944.chk
%mem=8GB
%nprocshared=4
# opt freq B3LYP/6-31G(d) empiricaldispersion=gd3bj scf=xqc

CID_81005058_JID_10944_neutraal

0 1
C          1.04370       -0.04795       -0.07610
C          0.69283       -1.53788       -0.08114
C          1.74034       -2.31749        0.71250
N         -0.66378       -1.67725        0.44991
C         -1.25374       -3.01349        0.31744
C         -1.22669       -3.79146        1.62742
C         -2.24399       -3.29655        2.68611
C         -2.32558       -4.73805        3.20123
C         -1.84299       -5.22782        1.80135
N         -2.92996       -5.57739        0.88583
C         -2.49502       -5.99663       -0.47250
C         -3.27282       -5.28236       -1.57894
C         -4.74717       -5.66875       -1.67875
C         -5.53391       -5.37664       -0.40339
C         -5.25054       -6.39580        0.67140
C         -6.27065       -7.27953        1.06544
C         -6.04276       -8.23863        2.05028
C         -4.79270       -8.32840        2.65069
C         -3.77213       -7.45559        2.26886
C         -3.98305       -6.47553        1.28274
H          1.05518        0.36090        0.94080
H          0.32119        0.52820       -0.66528
H          2.03328        0.11790       -0.51590
H          0.71197       -1.87485       -1.12496
H          1.71649       -2.05462        1.77585
H          1.58795       -3.39739        0.62039
H          2.74738       -2.10196        0.33853
H         -0.72573       -1.34262        1.40992
H         -2.29078       -2.86657        0.00204
H         -0.75652       -3.57783       -0.47815
H         -0.20492       -3.79860        2.03659
H         -1.86517       -2.56182        3.40174
H         -3.19128       -2.92927        2.27368
H         -3.31632       -5.03245        3.55520
H         -1.60527       -4.95555        4.00001
H         -1.09636       -6.03014        1.84703
H         -2.55223       -7.08691       -0.60263
H         -1.43346       -5.75467       -0.60548
H         -3.20291       -4.19766       -1.45536
H         -2.79532       -5.51349       -2.53924
H         -5.18985       -5.09188       -2.50028
H         -4.83649       -6.72717       -1.95392
H         -6.60395       -5.38712       -0.64620
H         -5.32188       -4.36847       -0.02624
H         -7.25352       -7.22357        0.60297
H         -6.84016       -8.91491        2.34610
H         -4.60780       -9.07710        3.41595
H         -2.80180       -7.55899        2.74491

--Link1--
%chk=JID_10944.chk
%mem=8GB
%nprocshared=4
# B3LYP/6-311++G(d,p) empiricaldispersion=gd3bj scf=xqc pop=npa geom=check

CID_81005058_JID_10944_Energie_neutraal

0 1

--Link1--
%chk=JID_10944.chk
%mem=8GB
%nprocshared=4
# B3LYP/6-311++G(d,p) empiricaldispersion=gd3bj scf=xqc pop=npa geom=check

CID_81005058_JID_10944_Energie_kation

1 2

--Link1--
%chk=JID_10944.chk
%mem=8GB
%nprocshared=4
# B3LYP/6-311++G(d,p) empiricaldispersion=gd3bj scf=xqc pop=npa geom=check

CID_81005058_JID_10944_Energie_anion

-1 2
