%chk=JID_2095.chk
%mem=8GB
%nprocshared=4
# opt freq B3LYP/6-31G(d) empiricaldispersion=gd3bj scf=xqc

CID_89042919_JID_2095_neutraal

0 1
C          0.94785        0.07703       -0.03669
C          0.17272       -1.06181       -0.67938
N          0.13278       -2.19898        0.21403
C         -0.38964       -3.43122       -0.09684
N         -0.11289       -4.49473        0.58678
S         -0.96383       -5.76955       -0.04224
O          0.19786       -6.51538       -0.77826
N         -1.64920       -5.00153       -1.33755
C         -1.30971       -3.76464       -1.24873
O         -1.65607       -2.77627       -2.07449
C         -2.46545       -3.15772       -3.19595
C         -2.68937       -1.92746       -4.05347
H          0.49878        0.36884        0.91864
H          0.95557        0.95186       -0.69412
H          1.98571       -0.21473        0.15635
H         -0.84412       -0.71558       -0.89068
H          0.65236       -1.33874       -1.62432
H          0.89602       -2.26297        0.88210
H         -1.95146       -3.92722       -3.78297
H         -3.42775       -3.54235       -2.84037
H         -1.73334       -1.51925       -4.39789
H         -3.30610       -2.16580       -4.92448
H         -3.18220       -1.13881       -3.47540

--Link1--
%chk=JID_2095.chk
%mem=8GB
%nprocshared=4
# B3LYP/6-311++G(d,p) empiricaldispersion=gd3bj scf=xqc pop=npa geom=check

CID_89042919_JID_2095_Energie_neutraal

0 1

--Link1--
%chk=JID_2095.chk
%mem=8GB
%nprocshared=4
# B3LYP/6-311++G(d,p) empiricaldispersion=gd3bj scf=xqc pop=npa geom=check

CID_89042919_JID_2095_Energie_kation

1 2

--Link1--
%chk=JID_2095.chk
%mem=8GB
%nprocshared=4
# B3LYP/6-311++G(d,p) empiricaldispersion=gd3bj scf=xqc pop=npa geom=check

CID_89042919_JID_2095_Energie_anion

-1 2
