%chk=JID_7190.chk
%mem=8GB
%nprocshared=4
# opt freq B3LYP/6-31G(d) empiricaldispersion=gd3bj scf=xqc

CID_152407203_JID_7190_neutraal

0 1
C          0.91981        0.05675        0.01866
C          0.13623       -1.21495        0.42643
C          0.64832       -1.63566        1.81067
C         -1.35130       -0.83760        0.46457
C          0.39949       -2.30276       -0.63667
O          1.13313       -2.08760       -1.60774
N         -0.17810       -3.53445       -0.58806
C         -0.77309       -4.26201        0.51685
C         -1.76317       -5.33087        0.06730
C         -1.29525       -6.38832       -0.94354
N         -0.29019       -7.33744       -0.44458
C         -0.47423       -8.65086       -1.07084
C          1.11627       -6.89685       -0.55262
C          1.72807       -6.65034       -1.94741
N          1.27025       -5.36552       -2.49503
N          1.77414       -5.04384       -3.58787
N          2.23442       -4.77442       -4.59493
H          0.75762        0.87277        0.73231
H          0.61045        0.41603       -0.97003
H          1.99802       -0.13780       -0.02435
H          0.68264       -0.78029        2.49564
H          0.01711       -2.38684        2.28922
H          1.66004       -2.05196        1.74442
H         -1.71118       -0.56878       -0.53552
H         -1.98800       -1.64874        0.82325
H         -1.52361        0.02037        1.12456
H          0.20511       -4.11161       -1.33501
H          0.03475       -4.68595        1.11851
H         -1.30858       -3.57133        1.16665
H         -2.14765       -5.84133        0.95999
H         -2.62672       -4.81906       -0.37931
H         -2.20999       -6.95165       -1.18032
H         -1.01390       -5.93241       -1.89583
H         -0.40997       -8.60676       -2.16332
H          0.26902       -9.36866       -0.70611
H         -1.45381       -9.06495       -0.80537
H          1.27455       -6.00707        0.06097
H          1.72855       -7.66738       -0.06395
H          2.82009       -6.62225       -1.83918
H          1.49387       -7.46891       -2.63629

--Link1--
%chk=JID_7190.chk
%mem=8GB
%nprocshared=4
# B3LYP/6-311++G(d,p) empiricaldispersion=gd3bj scf=xqc pop=npa geom=check

CID_152407203_JID_7190_Energie_neutraal

0 1

--Link1--
%chk=JID_7190.chk
%mem=8GB
%nprocshared=4
# B3LYP/6-311++G(d,p) empiricaldispersion=gd3bj scf=xqc pop=npa geom=check

CID_152407203_JID_7190_Energie_kation

1 2

--Link1--
%chk=JID_7190.chk
%mem=8GB
%nprocshared=4
# B3LYP/6-311++G(d,p) empiricaldispersion=gd3bj scf=xqc pop=npa geom=check

CID_152407203_JID_7190_Energie_anion

-1 2
