%chk=JID_10040.chk
%mem=8GB
%nprocshared=4
# opt freq B3LYP/6-31G(d) empiricaldispersion=gd3bj scf=xqc

CID_133339467_JID_10040_neutraal

0 1
C         -2.54400       -0.01100       -0.02600
C         -1.04957        0.11446        0.02692
C         -0.45219        1.34572       -0.28884
C          0.93340        1.49201       -0.23423
N          1.74372        0.46819        0.08449
C          1.17502       -0.72191        0.39228
C         -0.19428       -0.93185        0.39016
N         -0.67377       -2.24648        0.76997
O         -0.05312       -3.22472        0.33215
O         -1.65559       -2.30592        1.52182
N          1.57871        2.68272       -0.54694
C          1.14630        3.88243        0.17763
C          1.80055        4.00476        1.56403
N          3.17521        4.46522        1.48367
C          4.28488        3.66977        1.47771
O          4.31044        2.45098        1.55807
C          5.51334        4.55476        1.33807
N          4.89794        5.84760        1.24506
C          3.52692        5.76907        1.30655
O          2.77829        6.72545        1.19939
H         -2.96225       -0.00602        0.98518
H         -2.99255        0.82199       -0.57848
H         -2.84073       -0.92832       -0.54460
H         -1.06820        2.18343       -0.60245
H          1.88298       -1.50542        0.65194
H          2.57034        2.47422       -0.40275
H          1.41058        4.75159       -0.43593
H          0.05685        3.91210        0.28848
H          1.24181        4.74460        2.14877
H          1.77236        3.05003        2.10006
H          6.05766        4.33875        0.41754
H          6.14406        4.50811        2.22703
H          5.36945        6.72957        1.09208

--Link1--
%chk=JID_10040.chk
%mem=8GB
%nprocshared=4
# B3LYP/6-311++G(d,p) empiricaldispersion=gd3bj scf=xqc pop=npa geom=check

CID_133339467_JID_10040_Energie_neutraal

0 1

--Link1--
%chk=JID_10040.chk
%mem=8GB
%nprocshared=4
# B3LYP/6-311++G(d,p) empiricaldispersion=gd3bj scf=xqc pop=npa geom=check

CID_133339467_JID_10040_Energie_kation

1 2

--Link1--
%chk=JID_10040.chk
%mem=8GB
%nprocshared=4
# B3LYP/6-311++G(d,p) empiricaldispersion=gd3bj scf=xqc pop=npa geom=check

CID_133339467_JID_10040_Energie_anion

-1 2
