%chk=JID_8381.chk
%mem=8GB
%nprocshared=4
# opt freq B3LYP/6-31G(d) empiricaldispersion=gd3bj scf=xqc

CID_80903368_JID_8381_neutraal

0 1
C          0.98167       -0.07107        0.06792
N          1.12056       -1.45010        0.48524
C          0.69826       -2.05846        1.62798
O          0.97891       -3.24467        1.80668
C         -0.05185       -1.27626        2.67798
C          0.90195       -0.71665        3.72618
N          1.63381        0.43166        3.18220
C          2.16537        1.37931        4.07331
C          2.32926        2.72710        3.68146
C          2.94302        3.70407        4.48821
C          3.42919        3.28690        5.73472
C          3.31083        1.95585        6.14210
C          2.69916        1.01098        5.31320
N          3.15038        5.05242        4.09645
N          3.95689        5.28011        2.96286
N          1.75840        3.13151        2.41801
O          2.50144        3.08009        1.42242
O          0.57353        3.49692        2.41149
H          0.22500        0.46681        0.63739
H          0.70943       -0.06686       -0.99065
H          1.95219        0.41701        0.18421
H          1.63144       -2.07332       -0.12949
H         -0.67555       -0.49756        2.23224
H         -0.74621       -1.97768        3.15770
H          0.30271       -0.40232        4.58974
H          1.60784       -1.48616        4.06033
H          2.37522        0.10943        2.55311
H          3.92656        3.99272        6.39659
H          3.71211        1.64817        7.10573
H          2.65780       -0.02026        5.65515
H          3.40944        5.64118        4.89530
H          4.78817        4.68272        2.95706
H          3.45686        5.07074        2.09107

--Link1--
%chk=JID_8381.chk
%mem=8GB
%nprocshared=4
# B3LYP/6-311++G(d,p) empiricaldispersion=gd3bj scf=xqc pop=npa geom=check

CID_80903368_JID_8381_Energie_neutraal

0 1

--Link1--
%chk=JID_8381.chk
%mem=8GB
%nprocshared=4
# B3LYP/6-311++G(d,p) empiricaldispersion=gd3bj scf=xqc pop=npa geom=check

CID_80903368_JID_8381_Energie_kation

1 2

--Link1--
%chk=JID_8381.chk
%mem=8GB
%nprocshared=4
# B3LYP/6-311++G(d,p) empiricaldispersion=gd3bj scf=xqc pop=npa geom=check

CID_80903368_JID_8381_Energie_anion

-1 2
