%chk=JID_8235.chk
%mem=8GB
%nprocshared=4
# opt freq B3LYP/6-31G(d) empiricaldispersion=gd3bj scf=xqc

CID_61263564_JID_8235_neutraal

0 1
C          1.08017       -0.05926       -0.00785
C          0.85891        1.45424       -0.08771
C          1.22340        1.93968       -1.49821
C         -0.62193        1.83341        0.14224
O         -1.01304        2.95235        0.44704
O         -1.50723        0.84876       -0.08763
N          1.65763        2.25046        0.89116
C          1.83486        1.82604        2.18573
O          1.18326        2.33423        3.09619
C          2.96212        0.82506        2.45171
N          2.53845       -0.09478        3.49645
C          2.27522       -1.43614        3.32918
O          1.38379       -1.93212        4.01696
C          3.06825       -2.18734        2.37743
C          4.37937       -2.07748        1.94463
C          4.59281       -3.11569        1.00558
C          3.40830       -3.80669        0.92749
O          2.48344       -3.25916        1.75479
H          0.49507       -0.58839       -0.76955
H          0.76966       -0.46006        0.96198
H          2.12836       -0.32155       -0.17982
H          0.62339        1.43237       -2.26245
H          1.04867        3.01668       -1.60855
H          2.28158        1.75598       -1.71641
H         -2.37864        1.25277        0.11352
H          1.18510        3.15173        0.96996
H          3.26212        0.31833        1.53789
H          3.81752        1.38799        2.83806
H          1.91955        0.31556        4.19120
H          5.09872       -1.34494        2.28333
H          5.50072       -3.34327        0.46464
H          3.07908       -4.67148        0.36778

--Link1--
%chk=JID_8235.chk
%mem=8GB
%nprocshared=4
# B3LYP/6-311++G(d,p) empiricaldispersion=gd3bj scf=xqc pop=npa geom=check

CID_61263564_JID_8235_Energie_neutraal

0 1

--Link1--
%chk=JID_8235.chk
%mem=8GB
%nprocshared=4
# B3LYP/6-311++G(d,p) empiricaldispersion=gd3bj scf=xqc pop=npa geom=check

CID_61263564_JID_8235_Energie_kation

1 2

--Link1--
%chk=JID_8235.chk
%mem=8GB
%nprocshared=4
# B3LYP/6-311++G(d,p) empiricaldispersion=gd3bj scf=xqc pop=npa geom=check

CID_61263564_JID_8235_Energie_anion

-1 2
