%chk=JID_6019.chk
%mem=8GB
%nprocshared=4
# opt freq B3LYP/6-31G(d) empiricaldispersion=gd3bj scf=xqc

CID_131122687_JID_6019_neutraal

0 1
C          0.91800        1.14100       -0.03800
C          2.09298        0.71846        0.83388
N          2.30609       -0.68219        0.49920
C          1.09427       -1.24826       -0.11301
C          0.05037       -0.10953       -0.06932
O         -0.79946       -0.09634       -1.22126
C         -2.07583       -0.49813       -0.72508
C         -2.08345        0.03977        0.68008
O         -0.74550       -0.18150        1.12666
C          3.39683       -1.45227        0.84652
N          3.45010       -2.70484        0.51653
C          4.55694       -3.43089        0.83879
N          5.51373       -3.05874        1.61451
C          5.44320       -1.82699        2.19706
O          6.15923       -1.51008        3.14477
C          4.54249       -0.81276        1.57259
H          0.40338        2.01275        0.37819
H          1.26188        1.39875       -1.04735
H          1.84608        0.81490        1.89714
H          2.97280        1.33247        0.61699
H          1.30936       -1.54780       -1.14471
H          0.74320       -2.11984        0.45033
H         -2.11761       -1.59267       -0.73865
H         -2.87811       -0.09613       -1.34856
H         -2.79893       -0.46361        1.33469
H         -2.27200        1.11868        0.69679
H          4.61836       -4.43474        0.38497
H          4.15690       -0.16204        2.36371
H          5.12209       -0.21486        0.86209

--Link1--
%chk=JID_6019.chk
%mem=8GB
%nprocshared=4
# B3LYP/6-311++G(d,p) empiricaldispersion=gd3bj scf=xqc pop=npa geom=check

CID_131122687_JID_6019_Energie_neutraal

0 1

--Link1--
%chk=JID_6019.chk
%mem=8GB
%nprocshared=4
# B3LYP/6-311++G(d,p) empiricaldispersion=gd3bj scf=xqc pop=npa geom=check

CID_131122687_JID_6019_Energie_kation

1 2

--Link1--
%chk=JID_6019.chk
%mem=8GB
%nprocshared=4
# B3LYP/6-311++G(d,p) empiricaldispersion=gd3bj scf=xqc pop=npa geom=check

CID_131122687_JID_6019_Energie_anion

-1 2
