%chk=JID_8955.chk
%mem=8GB
%nprocshared=4
# opt freq B3LYP/6-31G(d) empiricaldispersion=gd3bj scf=xqc

CID_79122406_JID_8955_neutraal

0 1
C          1.03154       -0.08513        0.04194
C          0.40919        0.08010        1.42382
C          0.95658        1.28139        2.20311
N          0.62541        2.53564        1.53411
C          1.09012        3.73694        2.23832
C          2.61822        3.86315        2.33852
C          3.28618        3.94424        0.96886
C          2.68930        5.05559        0.08430
C          1.14841        5.12399        0.09418
C          0.55529        4.97437        1.49687
N          3.22866        5.01465       -1.28896
C          4.39299        5.85653       -1.53792
C          2.89351        3.96291       -2.11969
O          2.30356        2.94853       -1.75193
N          3.24001        4.04881       -3.43613
C          2.85387        5.18388       -4.26108
C          3.75275        5.33125       -5.48496
C          3.62409        4.17088       -6.46191
H          0.73301        0.72136       -0.63410
H          0.70064       -1.02775       -0.40608
H          2.12435       -0.10358        0.10149
H         -0.68024        0.15893        1.32490
H          0.60766       -0.82807        2.00583
H          0.51913        1.27238        3.20805
H          2.03982        1.16042        2.30760
H          0.99864        2.51758        0.58123
H          0.66482        3.74106        3.24960
H          2.86411        4.77041        2.90614
H          3.04691        3.03193        2.90884
H          3.21852        2.96521        0.48419
H          4.35984        4.12624        1.10368
H          3.02028        6.01093        0.51749
H          0.70753        4.36346       -0.55806
H          0.82914        6.08419       -0.33130
H         -0.53900        4.93272        1.42688
H          0.79094        5.87331        2.08128
H          4.87484        5.64503       -2.49422
H          4.07958        6.90378       -1.50661
H          5.13280        5.67636       -0.75149
H          3.00652        3.16101       -3.86404
H          1.81215        5.02268       -4.56341
H          2.86524        6.10665       -3.67416
H          3.48763        6.25782       -6.00720
H          4.79931        5.42376       -5.17193
H          2.58722        4.04703       -6.79020
H          4.24051        4.35486       -7.34767
H          3.95857        3.23058       -6.01297

--Link1--
%chk=JID_8955.chk
%mem=8GB
%nprocshared=4
# B3LYP/6-311++G(d,p) empiricaldispersion=gd3bj scf=xqc pop=npa geom=check

CID_79122406_JID_8955_Energie_neutraal

0 1

--Link1--
%chk=JID_8955.chk
%mem=8GB
%nprocshared=4
# B3LYP/6-311++G(d,p) empiricaldispersion=gd3bj scf=xqc pop=npa geom=check

CID_79122406_JID_8955_Energie_kation

1 2

--Link1--
%chk=JID_8955.chk
%mem=8GB
%nprocshared=4
# B3LYP/6-311++G(d,p) empiricaldispersion=gd3bj scf=xqc pop=npa geom=check

CID_79122406_JID_8955_Energie_anion

-1 2
