%chk=JID_8020.chk
%mem=8GB
%nprocshared=4
# opt freq B3LYP/6-31G(d) empiricaldispersion=gd3bj scf=xqc

CID_62016791_JID_8020_neutraal

0 1
C          1.01549        0.00074       -0.09879
C          0.12907       -0.45260       -1.25021
C          0.89770       -1.06823       -2.43141
N          0.97107       -2.52898       -2.44609
C          1.29215       -3.12994       -3.75079
C          2.33707       -2.43767       -4.64634
O          3.62838       -2.42521       -4.05564
C          1.56883       -3.20400       -1.29391
C          3.08504       -3.17556       -1.14272
C          3.77197       -4.33345       -1.04354
C          5.24372       -4.30489       -0.87544
O          5.88994       -5.32669       -0.67726
N          5.73542       -3.03587       -0.91094
C          4.95978       -1.91463       -0.97719
N          3.67659       -1.91834       -1.09347
N          5.74594       -0.79505       -0.86144
C          6.93908       -1.29521       -0.71639
N          7.06612       -2.66077       -0.78901
H          1.51337       -0.83312        0.39895
H          0.41126        0.51763        0.65408
H          1.78244        0.69960       -0.44799
H         -0.64363       -1.13944       -0.88500
H         -0.40533        0.43272       -1.61879
H          0.33978       -0.76671       -3.32847
H          1.88517       -0.60393       -2.52176
H          1.58807       -4.17813       -3.61546
H          0.35476       -3.16415       -4.32052
H          2.41610       -2.98419       -5.59191
H          2.05129       -1.41026       -4.89259
H          3.53595       -1.90814       -3.23059
H          1.12460       -2.82861       -0.36604
H          1.22993       -4.24952       -1.32115
H          3.30731       -5.31012       -1.07240
H          7.85962       -0.72441       -0.51921
H          7.57801       -3.12792       -0.04490

--Link1--
%chk=JID_8020.chk
%mem=8GB
%nprocshared=4
# B3LYP/6-311++G(d,p) empiricaldispersion=gd3bj scf=xqc pop=npa geom=check

CID_62016791_JID_8020_Energie_neutraal

0 1

--Link1--
%chk=JID_8020.chk
%mem=8GB
%nprocshared=4
# B3LYP/6-311++G(d,p) empiricaldispersion=gd3bj scf=xqc pop=npa geom=check

CID_62016791_JID_8020_Energie_kation

1 2

--Link1--
%chk=JID_8020.chk
%mem=8GB
%nprocshared=4
# B3LYP/6-311++G(d,p) empiricaldispersion=gd3bj scf=xqc pop=npa geom=check

CID_62016791_JID_8020_Energie_anion

-1 2
