%chk=JID_9877.chk
%mem=8GB
%nprocshared=4
# opt freq B3LYP/6-31G(d) empiricaldispersion=gd3bj scf=xqc

CID_114263568_JID_9877_neutraal

0 1
C          1.04473        0.00882       -0.08900
C          0.60177        1.48072        0.10412
C          1.21576        2.28110       -1.05773
C         -0.93764        1.55555        0.03987
N         -1.61806        0.84270        1.10900
C         -2.67312        1.27135        1.88176
O         -3.21504        0.46622        2.63716
C         -3.08271        2.64983        1.77137
C         -3.96961        3.29210        0.92106
C         -3.98172        4.65736        1.33838
C         -3.11315        4.75421        2.39717
O         -2.55401        3.54770        2.65957
C         -4.72878        2.70354       -0.15562
O         -5.53722        3.30380       -0.84805
O         -4.46665        1.40359       -0.40052
C          1.13768        1.97485        1.46225
O          1.71546        1.20639        2.23855
N          0.99978        3.25739        1.88997
C          0.58662        4.45812        1.20749
H          0.65619       -0.40484       -1.02663
H          0.69889       -0.63582        0.72654
H          2.13818       -0.07101       -0.11865
H          1.04844        1.77718       -2.01699
H          0.78031        3.27884       -1.15442
H          2.29696        2.40248       -0.92641
H         -1.28136        2.58860        0.00668
H         -1.29060        1.09640       -0.89239
H         -1.43337       -0.14531        1.23606
H         -4.56790        5.46199        0.91447
H         -2.80051        5.56496        3.04116
H         -5.08521        1.17499       -1.12468
H          1.42523        3.38115        2.80242
H          0.38047        5.22399        1.95951
H          1.40500        4.79467        0.56652
H         -0.30765        4.29404        0.61109

--Link1--
%chk=JID_9877.chk
%mem=8GB
%nprocshared=4
# B3LYP/6-311++G(d,p) empiricaldispersion=gd3bj scf=xqc pop=npa geom=check

CID_114263568_JID_9877_Energie_neutraal

0 1

--Link1--
%chk=JID_9877.chk
%mem=8GB
%nprocshared=4
# B3LYP/6-311++G(d,p) empiricaldispersion=gd3bj scf=xqc pop=npa geom=check

CID_114263568_JID_9877_Energie_kation

1 2

--Link1--
%chk=JID_9877.chk
%mem=8GB
%nprocshared=4
# B3LYP/6-311++G(d,p) empiricaldispersion=gd3bj scf=xqc pop=npa geom=check

CID_114263568_JID_9877_Energie_anion

-1 2
