%chk=JID_6605.chk
%mem=8GB
%nprocshared=4
# opt freq B3LYP/6-31G(d) empiricaldispersion=gd3bj scf=xqc

CID_79986732_JID_6605_neutraal

0 1
C          1.03145       -0.08685        0.03831
C          0.08369       -0.38307        1.20305
C         -1.34955        0.12318        0.96377
C         -2.21385       -0.79986        0.08943
C         -2.06966       -2.26984        0.55447
N         -0.64842       -2.68432        0.57665
C          0.08333       -1.87850        1.56883
C         -0.51895       -4.14358        0.76390
C         -0.91007       -4.72712        2.12509
C          0.26144       -5.60185        2.54730
N          1.06602       -5.87935        1.35613
C          0.88620       -4.71676        0.47632
C          0.84266       -7.20510        0.76264
C         -0.51219       -7.43607        0.08902
C          1.97831       -7.53841       -0.21491
N         -1.87837       -0.68700       -1.33752
H          0.97425        0.96727       -0.25223
H          0.82731       -0.69729       -0.84396
H          2.06649       -0.29035        0.33529
H          0.47878        0.16989        2.06634
H         -1.84117        0.19854        1.94396
H         -1.33654        1.14383        0.56140
H         -3.26154       -0.49599        0.19684
H         -2.63985       -2.90667       -0.13468
H         -2.52727       -2.38755        1.54546
H          1.12450       -2.20417        1.65740
H         -0.36052       -1.98693        2.56609
H         -1.17877       -4.61076        0.01911
H         -1.82314       -5.32451        2.01669
H         -1.12314       -3.97785        2.89225
H          0.88710       -5.03730        3.25025
H         -0.06728       -6.50047        3.08079
H          1.01297       -4.93599       -0.58932
H          1.67458       -3.99982        0.72573
H          0.93109       -7.94197        1.57265
H         -0.65652       -6.78417       -0.77794
H         -0.58605       -8.47020       -0.26658
H         -1.33980       -7.27990        0.78660
H          2.95708       -7.39701        0.25728
H          1.91626       -8.58653       -0.52864
H          1.94296       -6.92141       -1.11842
H         -1.55730        0.25498       -1.54924
H         -1.08600       -1.30877       -1.51660

--Link1--
%chk=JID_6605.chk
%mem=8GB
%nprocshared=4
# B3LYP/6-311++G(d,p) empiricaldispersion=gd3bj scf=xqc pop=npa geom=check

CID_79986732_JID_6605_Energie_neutraal

0 1

--Link1--
%chk=JID_6605.chk
%mem=8GB
%nprocshared=4
# B3LYP/6-311++G(d,p) empiricaldispersion=gd3bj scf=xqc pop=npa geom=check

CID_79986732_JID_6605_Energie_kation

1 2

--Link1--
%chk=JID_6605.chk
%mem=8GB
%nprocshared=4
# B3LYP/6-311++G(d,p) empiricaldispersion=gd3bj scf=xqc pop=npa geom=check

CID_79986732_JID_6605_Energie_anion

-1 2
