%chk=JID_6602.chk
%mem=8GB
%nprocshared=4
# opt freq B3LYP/6-31G(d) empiricaldispersion=gd3bj scf=xqc

CID_63808207_JID_6602_neutraal

0 1
C          1.07286        0.06847       -0.00188
C          1.05815        0.46505        1.46384
O          1.49037        1.82441        1.61794
C          2.83582        2.03413        1.62771
O          3.67656        1.14231        1.59052
C          3.18683        3.49771        1.76393
S          2.15513        4.59415        0.73069
C          3.00278        4.47685       -0.84523
C          3.54913        5.61392       -1.47139
C          4.17027        5.47543       -2.72826
C          4.25144        4.23275       -3.37187
C          3.68859        3.11812       -2.74469
C          3.06754        3.24128       -1.50082
C          4.88692        4.10627       -4.73338
N          5.95493        3.11338       -4.74180
C          3.47865        6.98296       -0.84837
H          0.50572        0.78648       -0.60306
H          0.63903       -0.92653       -0.13639
H          2.09390        0.05339       -0.39502
H          0.03335        0.41307        1.84607
H          1.66490       -0.21438        2.07303
H          3.05172        3.77602        2.81378
H          4.24168        3.64109        1.50906
H          4.58834        6.35447       -3.21605
H          3.72821        2.14406       -3.22946
H          2.61814        2.35367       -1.06946
H          4.11617        3.82629       -5.46036
H          5.29802        5.07011       -5.05405
H          6.42055        3.13199       -5.64653
H          6.65484        3.37906       -4.05043
H          2.43607        7.29289       -0.72338
H          3.98661        6.99004        0.12127
H          3.96778        7.73557       -1.47623

--Link1--
%chk=JID_6602.chk
%mem=8GB
%nprocshared=4
# B3LYP/6-311++G(d,p) empiricaldispersion=gd3bj scf=xqc pop=npa geom=check

CID_63808207_JID_6602_Energie_neutraal

0 1

--Link1--
%chk=JID_6602.chk
%mem=8GB
%nprocshared=4
# B3LYP/6-311++G(d,p) empiricaldispersion=gd3bj scf=xqc pop=npa geom=check

CID_63808207_JID_6602_Energie_kation

1 2

--Link1--
%chk=JID_6602.chk
%mem=8GB
%nprocshared=4
# B3LYP/6-311++G(d,p) empiricaldispersion=gd3bj scf=xqc pop=npa geom=check

CID_63808207_JID_6602_Energie_anion

-1 2
