%chk=JID_10136.chk
%mem=8GB
%nprocshared=4
# opt freq B3LYP/6-31G(d) empiricaldispersion=gd3bj scf=xqc

CID_66404451_JID_10136_neutraal

0 1
C          1.03938        0.01518       -0.09066
C          0.58825        0.10349        1.36224
C          0.88683        1.46455        2.01889
C          0.22931        2.68279        1.32424
C         -1.26034        2.79165        1.48326
C         -2.21828        2.07756        0.79251
N         -3.45914        2.45498        1.24318
C         -3.33516        3.45974        2.18190
C         -4.30323        4.19071        2.89184
C         -3.86792        5.15630        3.80336
C         -2.51226        5.38876        4.00342
C         -1.55514        4.65994        3.29048
C         -1.96527        3.67972        2.36088
C         -4.71298        1.89433        0.74815
C         -5.14498        0.72505        1.58079
C         -5.87891        0.72618        2.75242
C         -6.09852       -0.58700        3.25906
C         -5.53096       -1.54994        2.45635
S         -4.74304       -0.87212        1.09968
N          0.54035        1.37758        3.44842
H          0.44448        0.66511       -0.73828
H          0.92030       -1.00973       -0.45700
H          2.09373        0.29031       -0.19295
H         -0.47903       -0.13844        1.42451
H          1.11229       -0.68292        1.92193
H          1.97256        1.61757        1.96792
H          0.69117        3.59333        1.72881
H          0.47625        2.69151        0.25632
H         -2.11559        1.31357        0.03189
H         -5.36479        4.02242        2.74630
H         -4.60052        5.73345        4.36278
H         -2.19144        6.14448        4.71584
H         -0.49983        4.85787        3.45211
H         -5.46922        2.68658        0.76105
H         -4.56017        1.61731       -0.30174
H         -6.23616        1.62790        3.23492
H         -6.64159       -0.81307        4.16866
H         -5.53942       -2.62160        2.60129
H          0.66316        2.29276        3.88028
H         -0.46334        1.19175        3.52480

--Link1--
%chk=JID_10136.chk
%mem=8GB
%nprocshared=4
# B3LYP/6-311++G(d,p) empiricaldispersion=gd3bj scf=xqc pop=npa geom=check

CID_66404451_JID_10136_Energie_neutraal

0 1

--Link1--
%chk=JID_10136.chk
%mem=8GB
%nprocshared=4
# B3LYP/6-311++G(d,p) empiricaldispersion=gd3bj scf=xqc pop=npa geom=check

CID_66404451_JID_10136_Energie_kation

1 2

--Link1--
%chk=JID_10136.chk
%mem=8GB
%nprocshared=4
# B3LYP/6-311++G(d,p) empiricaldispersion=gd3bj scf=xqc pop=npa geom=check

CID_66404451_JID_10136_Energie_anion

-1 2
