%chk=JID_10266.chk
%mem=8GB
%nprocshared=4
# opt freq B3LYP/6-31G(d) empiricaldispersion=gd3bj scf=xqc

CID_81261100_JID_10266_neutraal

0 1
C          2.26000        1.82000        0.03500
C          1.05208        0.93702       -0.05247
C         -0.21029        1.48393       -0.26497
C         -1.37402        0.68504       -0.31326
C         -1.27945       -0.72555       -0.13984
C          0.02466       -1.27564        0.06729
C          1.15712       -0.43844        0.12206
C          0.27943       -2.75682        0.21722
C         -2.49810       -1.66995       -0.13794
C         -3.28932       -1.66998        1.16412
C         -4.41236       -0.94920        1.53705
C         -4.87741       -1.24704        2.86185
C         -4.09966       -2.23239        3.43942
S         -2.84051       -2.75353        2.42304
C         -4.30089       -2.86230        4.78606
C         -5.13603       -1.97953        5.71299
S         -6.71510       -1.48888        4.93844
C         -6.03659       -0.56222        3.52398
N         -3.37702       -1.51529       -1.30682
C         -2.65279        1.42096       -0.61038
H          2.17644        2.66338       -0.65857
H          2.36825        2.20636        1.05315
H          3.16945        1.27105       -0.23115
H         -0.29279        2.56150       -0.40291
H          2.14046       -0.87308        0.29500
H         -0.21276       -3.14861        1.10932
H         -0.06143       -3.29640       -0.67180
H          1.34796       -2.97454        0.32569
H         -2.12860       -2.69170       -0.27104
H         -4.89538       -0.22476        0.89454
H         -3.33405       -3.05802        5.26552
H         -4.79551       -3.83354        4.65408
H         -4.58773       -1.07193        5.98945
H         -5.35917       -2.52168        6.63756
H         -6.84597       -0.40914        2.80268
H         -5.71922        0.42401        3.88027
H         -4.04319       -2.28572       -1.29689
H         -3.93145       -0.67455       -1.19925
H         -3.42727        1.18207        0.11545
H         -2.51591        2.50713       -0.55088
H         -2.99252        1.20318       -1.62683

--Link1--
%chk=JID_10266.chk
%mem=8GB
%nprocshared=4
# B3LYP/6-311++G(d,p) empiricaldispersion=gd3bj scf=xqc pop=npa geom=check

CID_81261100_JID_10266_Energie_neutraal

0 1

--Link1--
%chk=JID_10266.chk
%mem=8GB
%nprocshared=4
# B3LYP/6-311++G(d,p) empiricaldispersion=gd3bj scf=xqc pop=npa geom=check

CID_81261100_JID_10266_Energie_kation

1 2

--Link1--
%chk=JID_10266.chk
%mem=8GB
%nprocshared=4
# B3LYP/6-311++G(d,p) empiricaldispersion=gd3bj scf=xqc pop=npa geom=check

CID_81261100_JID_10266_Energie_anion

-1 2
