%chk=JID_8142.chk
%mem=8GB
%nprocshared=4
# opt freq B3LYP/6-31G(d) empiricaldispersion=gd3bj scf=xqc

CID_117360219_JID_8142_neutraal

0 1
C          0.92566       -0.04070       -0.05307
O          1.42447       -1.15197        0.67846
N          1.92153       -2.15064       -0.26518
C          3.34261       -2.35060        0.05328
C          3.57371       -2.83045        1.46750
C          3.51747       -4.19341        1.78461
C          3.64681       -4.61665        3.11068
C          3.79773       -3.67680        4.14101
C          3.90550       -2.32002        3.82216
C          3.79005       -1.90248        2.49555
N          3.86715       -4.12427        5.48877
C          3.58486       -3.43824        6.66620
C          4.04703       -4.23034        7.69572
C          4.44308       -5.42354        7.07740
N          4.27476       -5.39707        5.75701
C          2.83120       -2.11770        6.82545
C          2.02466       -1.87245        8.08463
C          3.29989       -1.13116        7.87306
H          0.54098        0.69461        0.65884
H          0.10772       -0.34964       -0.71177
H          1.72662        0.42487       -0.63622
H          1.40374       -2.97848        0.03487
H          3.75558       -3.08654       -0.64707
H          3.89927       -1.42332       -0.13037
H          3.35737       -4.93405        1.00426
H          3.58735       -5.68081        3.33274
H          4.11500       -1.56781        4.57586
H          3.84879       -0.84068        2.26459
H          4.02763       -4.01440        8.75365
H          4.82267       -6.32651        7.53831
H          2.39542       -1.70565        5.92092
H          1.09372       -1.32449        7.98188
H          1.98993       -2.63262        8.85518
H          4.15054       -1.38422        8.49471
H          3.24084       -0.07599        7.62882

--Link1--
%chk=JID_8142.chk
%mem=8GB
%nprocshared=4
# B3LYP/6-311++G(d,p) empiricaldispersion=gd3bj scf=xqc pop=npa geom=check

CID_117360219_JID_8142_Energie_neutraal

0 1

--Link1--
%chk=JID_8142.chk
%mem=8GB
%nprocshared=4
# B3LYP/6-311++G(d,p) empiricaldispersion=gd3bj scf=xqc pop=npa geom=check

CID_117360219_JID_8142_Energie_kation

1 2

--Link1--
%chk=JID_8142.chk
%mem=8GB
%nprocshared=4
# B3LYP/6-311++G(d,p) empiricaldispersion=gd3bj scf=xqc pop=npa geom=check

CID_117360219_JID_8142_Energie_anion

-1 2
