%chk=JID_10307.chk
%mem=8GB
%nprocshared=4
# opt freq B3LYP/6-31G(d) empiricaldispersion=gd3bj scf=xqc

CID_114963404_JID_10307_neutraal

0 1
C          0.92038       -0.05789        0.01759
C          0.65938       -1.54124       -0.22284
C          0.85781       -2.47175        0.95273
C          0.69605       -3.85086        0.74461
C          0.86673       -4.76573        1.78835
C          1.18426       -4.32057        3.07562
C          1.35994       -2.94647        3.28439
C          1.19269       -2.03354        2.23807
C          1.39474       -5.28403        4.21527
C          0.36540       -6.38469        4.33754
O          0.62878       -7.55754        4.08491
C         -0.93825       -6.04590        4.97544
C         -1.76589       -4.85458        4.58065
C         -2.26609       -6.24184        4.26079
C         -2.35306       -6.72155        2.82931
C         -2.82196       -5.89842        1.79162
C         -2.92787       -6.36528        0.47785
C         -2.57563       -7.67623        0.17370
C         -2.12139       -8.51773        1.18325
C         -2.01864       -8.04427        2.49377
H          0.24406        0.34786        0.77714
H          0.75889        0.50535       -0.90737
H          1.95153        0.11781        0.34150
H         -0.37370       -1.65394       -0.57481
H          1.31963       -1.87229       -1.03443
H          0.43750       -4.22771       -0.24352
H          0.74038       -5.82803        1.58187
H          1.63028       -2.56906        4.26849
H          1.33586       -0.97803        2.45302
H          2.38009       -5.75027        4.09301
H          1.42116       -4.75406        5.17533
H         -0.94544       -6.31071        6.02958
H         -2.27418       -4.30814        5.36772
H         -1.44957       -4.22171        3.76161
H         -3.07996       -6.60036        4.89060
H         -3.11290       -4.87279        2.00633
H         -3.28944       -5.70373       -0.30448
H         -2.65780       -8.04241       -0.84584
H         -1.84417       -9.54367        0.95726
H         -1.65778       -8.71918        3.26892

--Link1--
%chk=JID_10307.chk
%mem=8GB
%nprocshared=4
# B3LYP/6-311++G(d,p) empiricaldispersion=gd3bj scf=xqc pop=npa geom=check

CID_114963404_JID_10307_Energie_neutraal

0 1

--Link1--
%chk=JID_10307.chk
%mem=8GB
%nprocshared=4
# B3LYP/6-311++G(d,p) empiricaldispersion=gd3bj scf=xqc pop=npa geom=check

CID_114963404_JID_10307_Energie_kation

1 2

--Link1--
%chk=JID_10307.chk
%mem=8GB
%nprocshared=4
# B3LYP/6-311++G(d,p) empiricaldispersion=gd3bj scf=xqc pop=npa geom=check

CID_114963404_JID_10307_Energie_anion

-1 2
