%chk=JID_7526.chk
%mem=8GB
%nprocshared=4
# opt freq B3LYP/6-31G(d) empiricaldispersion=gd3bj scf=xqc

CID_14280939_JID_7526_neutraal

0 1
C          1.05344        0.06186        0.05759
C          0.21795       -1.09572        0.58878
C          0.85353       -1.80677        1.79661
N          0.45526       -1.36732        3.15638
C          0.46218        0.09834        3.29282
C         -0.01885        0.55552        4.66703
C          0.82637       -0.05525        5.76827
C          0.85938       -1.57718        5.61967
C          1.31595       -1.99917        4.19727
C          1.29992       -3.54866        4.13046
C          2.18743       -4.21164        5.19118
C          1.86038       -3.66938        6.55854
O          1.82969       -4.40757        7.54355
C          1.76315       -2.17166        6.69936
C          3.67156       -4.08946        4.87918
O          4.08472       -3.54988        3.85184
C          4.64118       -4.65994        5.88333
H          1.15956        0.87217        0.78136
H          0.58246        0.47954       -0.83835
H          2.05596       -0.27838       -0.22177
H         -0.80272       -0.76678        0.81467
H          0.12224       -1.82753       -0.22405
H          0.54299       -2.85331        1.69745
H          1.94592       -1.78316        1.69084
H         -0.22248        0.55308        2.57009
H          1.46680        0.49809        3.10462
H          0.02694        1.64879        4.72952
H         -1.06983        0.27166        4.80537
H          1.84394        0.35274        5.71723
H          0.41734        0.22461        6.74609
H         -0.16008       -1.95923        5.77979
H          2.34665       -1.64943        4.04717
H          1.62861       -3.90626        3.14886
H          0.26663       -3.89860        4.26231
H          1.95628       -5.28479        5.18753
H          2.77739       -1.76005        6.64380
H          1.36011       -1.94200        7.69240
H          4.71461       -3.99084        6.74393
H          4.31023       -5.65184        6.19991
H          5.62826       -4.75670        5.42220

--Link1--
%chk=JID_7526.chk
%mem=8GB
%nprocshared=4
# B3LYP/6-311++G(d,p) empiricaldispersion=gd3bj scf=xqc pop=npa geom=check

CID_14280939_JID_7526_Energie_neutraal

0 1

--Link1--
%chk=JID_7526.chk
%mem=8GB
%nprocshared=4
# B3LYP/6-311++G(d,p) empiricaldispersion=gd3bj scf=xqc pop=npa geom=check

CID_14280939_JID_7526_Energie_kation

1 2

--Link1--
%chk=JID_7526.chk
%mem=8GB
%nprocshared=4
# B3LYP/6-311++G(d,p) empiricaldispersion=gd3bj scf=xqc pop=npa geom=check

CID_14280939_JID_7526_Energie_anion

-1 2
