%chk=JID_7515.chk
%mem=8GB
%nprocshared=4
# opt freq B3LYP/6-31G(d) empiricaldispersion=gd3bj scf=xqc

CID_93683109_JID_7515_neutraal

0 1
C          0.65300       -1.21900        0.25200
C         -0.88473       -1.17197        0.34928
N         -1.43780        0.16799        0.51357
C         -0.77770        1.21721       -0.25838
C          0.74690        1.06270       -0.46382
N          1.18092       -0.30793       -0.77748
C         -1.98671        0.51903        1.81443
C         -1.11200        0.35404        3.06656
C          0.02296        1.36448        3.25039
C         -0.37885        2.82108        3.28236
C          0.35808        3.76336        2.54064
C          0.00466        5.11425        2.53848
C         -1.01403        5.53194        3.40176
C         -1.75290        4.62784        4.15101
C         -1.43539        3.27110        4.08928
O         -1.26162        6.86808        3.56283
N          0.77229        6.06508        1.83488
H          1.10541       -0.98103        1.22184
H          0.96466       -2.23966        0.00349
H         -1.22729       -1.85228        1.13801
H         -1.29508       -1.58203       -0.58306
H         -1.24029        1.20569       -1.25427
H         -0.98892        2.21412        0.14534
H          1.28733        1.40606        0.42221
H          1.06261        1.72124       -1.28133
H          0.75526       -0.56987       -1.66776
H         -2.41515        1.52811        1.78302
H         -2.86041       -0.13092        1.96236
H         -1.77427        0.40210        3.94071
H         -0.68503       -0.65570        3.09263
H          0.53022        1.14757        4.19983
H          0.77492        1.19735        2.47625
H          1.20715        3.43244        1.94820
H         -2.54450        4.98016        4.80502
H         -2.00288        2.57570        4.70254
H         -0.41590        7.29578        3.33064
H          0.17908        6.78772        1.43024
H          1.34256        5.63804        1.10907

--Link1--
%chk=JID_7515.chk
%mem=8GB
%nprocshared=4
# B3LYP/6-311++G(d,p) empiricaldispersion=gd3bj scf=xqc pop=npa geom=check

CID_93683109_JID_7515_Energie_neutraal

0 1

--Link1--
%chk=JID_7515.chk
%mem=8GB
%nprocshared=4
# B3LYP/6-311++G(d,p) empiricaldispersion=gd3bj scf=xqc pop=npa geom=check

CID_93683109_JID_7515_Energie_kation

1 2

--Link1--
%chk=JID_7515.chk
%mem=8GB
%nprocshared=4
# B3LYP/6-311++G(d,p) empiricaldispersion=gd3bj scf=xqc pop=npa geom=check

CID_93683109_JID_7515_Energie_anion

-1 2
