%chk=JID_6486.chk
%mem=8GB
%nprocshared=4
# opt freq B3LYP/6-31G(d) empiricaldispersion=gd3bj scf=xqc

CID_141205916_JID_6486_neutraal

0 1
C          1.01450       -0.01659       -0.09754
O         -0.16852        0.68385        0.25446
C          0.00133        1.49491        1.40293
O         -0.26200        0.79579        2.61540
C         -1.63766        0.49929        2.92361
C         -2.47780        1.76103        2.89396
C         -3.39155        1.97252        1.93428
C         -3.57692        1.01988        0.86604
C         -3.08315       -0.22612        0.94735
C         -2.29008       -0.71810        2.14868
C         -1.19818       -1.69912        1.67765
O         -1.28683       -2.46967        0.71960
O         -3.30590       -1.39356        2.92293
C         -2.90068       -2.08393        4.09313
O         -2.04504       -3.18614        3.83757
C         -2.74518       -4.26864        3.23190
H          0.78337       -0.68701       -0.92961
H          1.38384       -0.61228        0.74254
H          1.78722        0.68628       -0.42388
H          1.03190        1.86660        1.45694
H         -0.62664        2.38435        1.30528
H         -1.59701        0.22748        3.98116
H         -2.31506        2.49983        3.67169
H         -3.98408        2.88239        1.91216
H         -4.15228        1.32968       -0.00162
H         -3.26979       -0.93294        0.14307
H         -0.30792       -1.75078        2.32844
H         -2.39763       -1.41561        4.79472
H         -3.80425       -2.43168        4.60762
H         -3.50975       -4.65521        3.91278
H         -3.20480       -3.96203        2.28771
H         -2.02760       -5.06760        3.02688

--Link1--
%chk=JID_6486.chk
%mem=8GB
%nprocshared=4
# B3LYP/6-311++G(d,p) empiricaldispersion=gd3bj scf=xqc pop=npa geom=check

CID_141205916_JID_6486_Energie_neutraal

0 1

--Link1--
%chk=JID_6486.chk
%mem=8GB
%nprocshared=4
# B3LYP/6-311++G(d,p) empiricaldispersion=gd3bj scf=xqc pop=npa geom=check

CID_141205916_JID_6486_Energie_kation

1 2

--Link1--
%chk=JID_6486.chk
%mem=8GB
%nprocshared=4
# B3LYP/6-311++G(d,p) empiricaldispersion=gd3bj scf=xqc pop=npa geom=check

CID_141205916_JID_6486_Energie_anion

-1 2
