%chk=JID_8735.chk
%mem=8GB
%nprocshared=4
# opt freq B3LYP/6-31G(d) empiricaldispersion=gd3bj scf=xqc

CID_115128060_JID_8735_neutraal

0 1
C          0.92104       -0.06135        0.00126
C          0.37291        0.96970       -0.98987
C          0.55794        0.47773       -2.43145
C         -1.16280        1.11578       -0.78494
O         -1.81005        2.15264       -0.76038
O         -1.82014       -0.06428       -0.72304
N          0.97403        2.30117       -0.75640
C          2.41925        2.43372       -0.59821
C          3.27044        2.43058       -1.87912
C          2.84703        3.45932       -2.90128
C          2.89876        4.82492       -2.58503
C          2.49306        5.74395       -3.53540
C          2.02890        5.33294       -4.78807
C          1.61384        6.51202       -5.61039
C          2.34420        7.64828       -4.87919
C          2.42849        7.23265       -3.40424
C          1.96340        3.99237       -5.11899
C          2.38907        3.05601       -4.17341
H          0.39337       -1.01901       -0.07885
H          0.80145        0.27890        1.03668
H          1.97968       -0.28167       -0.17272
H         -0.03545       -0.42474       -2.62277
H          0.22160        1.22947       -3.15409
H          1.59504        0.21692       -2.65199
H         -2.75880        0.20802       -0.64710
H          0.61954        2.97102       -1.44357
H          2.57815        3.39421       -0.09146
H          2.81869        1.69670        0.10567
H          4.31397        2.63815       -1.60778
H          3.28594        1.43085       -2.32279
H          3.24578        5.16276       -1.61314
H          0.52792        6.64268       -5.56161
H          1.93826        6.43252       -6.65141
H          3.36244        7.73824       -5.28374
H          1.85574        8.61778       -5.01430
H          3.31530        7.64943       -2.91904
H          1.52640        7.52365       -2.85623
H          1.59339        3.67065       -6.08697
H          2.35001        1.99978       -4.43048

--Link1--
%chk=JID_8735.chk
%mem=8GB
%nprocshared=4
# B3LYP/6-311++G(d,p) empiricaldispersion=gd3bj scf=xqc pop=npa geom=check

CID_115128060_JID_8735_Energie_neutraal

0 1

--Link1--
%chk=JID_8735.chk
%mem=8GB
%nprocshared=4
# B3LYP/6-311++G(d,p) empiricaldispersion=gd3bj scf=xqc pop=npa geom=check

CID_115128060_JID_8735_Energie_kation

1 2

--Link1--
%chk=JID_8735.chk
%mem=8GB
%nprocshared=4
# B3LYP/6-311++G(d,p) empiricaldispersion=gd3bj scf=xqc pop=npa geom=check

CID_115128060_JID_8735_Energie_anion

-1 2
