%chk=JID_5549.chk
%mem=8GB
%nprocshared=4
# opt freq B3LYP/6-31G(d) empiricaldispersion=gd3bj scf=xqc

CID_84676801_JID_5549_neutraal

0 1
C          1.06986       -0.02418       -0.06734
C          0.14246       -0.09143        1.14425
C          0.52801        0.92751        2.21756
O         -1.25255       -0.08041        0.77806
C         -1.76561        1.13767        0.43851
C         -1.60968        1.64539       -0.84647
C         -2.14039        2.90292       -1.18961
C         -2.89721        3.61808       -0.24250
C         -3.04604        3.08331        1.04552
C         -2.51446        1.83601        1.37644
N         -3.30991        4.93954       -0.46907
C         -1.82347        3.46429       -2.55451
C         -0.64134        4.39791       -2.52816
O          0.46700        4.17038       -2.06830
O         -0.88853        5.57191       -3.14629
H          1.09880        0.98071       -0.49984
H          0.73526       -0.71227       -0.85045
H          2.09431       -0.28840        0.21487
H          0.28966       -1.08252        1.59172
H          0.47429        1.95403        1.83958
H         -0.14567        0.85792        3.07778
H          1.55160        0.75520        2.56597
H         -1.04843        1.07388       -1.58052
H         -3.57839        3.64187        1.81110
H         -2.65884        1.42911        2.37259
H         -4.06005        5.24116        0.14591
H         -3.50746        5.17198       -1.43589
H         -1.59667        2.66127       -3.26645
H         -2.70169        3.97382       -2.96651
H         -0.04773        6.06442       -3.03509

--Link1--
%chk=JID_5549.chk
%mem=8GB
%nprocshared=4
# B3LYP/6-311++G(d,p) empiricaldispersion=gd3bj scf=xqc pop=npa geom=check

CID_84676801_JID_5549_Energie_neutraal

0 1

--Link1--
%chk=JID_5549.chk
%mem=8GB
%nprocshared=4
# B3LYP/6-311++G(d,p) empiricaldispersion=gd3bj scf=xqc pop=npa geom=check

CID_84676801_JID_5549_Energie_kation

1 2

--Link1--
%chk=JID_5549.chk
%mem=8GB
%nprocshared=4
# B3LYP/6-311++G(d,p) empiricaldispersion=gd3bj scf=xqc pop=npa geom=check

CID_84676801_JID_5549_Energie_anion

-1 2
