%chk=JID_4945.chk
%mem=8GB
%nprocshared=4
# opt freq B3LYP/6-31G(d) empiricaldispersion=gd3bj scf=xqc

CID_81188268_JID_4945_neutraal

0 1
C          1.04158        0.07980        0.04362
C          0.49096        1.49164       -0.13274
C          1.24781        2.32073       -1.18440
S          0.99669        1.79734       -2.90081
O          1.19225        2.98878       -3.79060
C          2.41169        0.67807       -3.13005
C          3.76476        1.36576       -3.32063
C          4.56691        1.53491       -2.05095
C          4.98927        0.41717       -1.31597
C          5.72061        0.57732       -0.13836
C          6.04670        1.85472        0.31149
C          5.64929        2.97215       -0.42004
C          4.91839        2.81416       -1.59880
N         -0.95935        1.42400       -0.34625
H          0.81803       -0.56015       -0.81584
H          0.59970       -0.39798        0.92584
H          2.12610        0.09844        0.19138
H          0.63777        2.00509        0.82614
H          0.87887        3.35269       -1.13506
H          2.30754        2.36242       -0.94468
H          2.41884       -0.07389       -2.33977
H          2.17571        0.14887       -4.06114
H          4.37674        0.74342       -3.98796
H          3.65811        2.32666       -3.83687
H          4.75655       -0.58917       -1.65720
H          6.04133       -0.29509        0.42525
H          6.61823        1.97926        1.22755
H          5.91096        3.96889       -0.07397
H          4.61499        3.69786       -2.15743
H         -1.33365        2.36317       -0.48854
H         -1.17558        0.90757       -1.19846

--Link1--
%chk=JID_4945.chk
%mem=8GB
%nprocshared=4
# B3LYP/6-311++G(d,p) empiricaldispersion=gd3bj scf=xqc pop=npa geom=check

CID_81188268_JID_4945_Energie_neutraal

0 1

--Link1--
%chk=JID_4945.chk
%mem=8GB
%nprocshared=4
# B3LYP/6-311++G(d,p) empiricaldispersion=gd3bj scf=xqc pop=npa geom=check

CID_81188268_JID_4945_Energie_kation

1 2

--Link1--
%chk=JID_4945.chk
%mem=8GB
%nprocshared=4
# B3LYP/6-311++G(d,p) empiricaldispersion=gd3bj scf=xqc pop=npa geom=check

CID_81188268_JID_4945_Energie_anion

-1 2
