%chk=JID_10854.chk
%mem=8GB
%nprocshared=4
# opt freq B3LYP/6-31G(d) empiricaldispersion=gd3bj scf=xqc

CID_31482684_JID_10854_neutraal

0 1
C          1.03617        0.08842        0.02955
C          0.54384       -0.58698        1.29803
C          0.80276        0.24762        2.55126
C          0.04967        1.58170        2.61495
C         -1.47583        1.47082        2.63623
N         -1.96321        0.54182        3.63527
C         -2.40897        0.74561        4.90267
O         -2.83790       -0.23870        5.51521
C         -2.50877        2.14185        5.52768
N         -1.32888        2.99774        5.49051
C         -0.11224        2.63236        6.14394
C          0.03720        1.42733        6.84552
C          1.26774        1.07992        7.41123
C          2.35810        1.93522        7.29645
C          2.21526        3.14686        6.62490
C          0.99175        3.50744        6.05085
N          0.93474        4.74644        5.39136
C         -0.18813        5.08024        4.84364
C         -1.42401        4.22356        4.84561
O         -2.40932        4.66343        4.26617
H          0.46747        0.99705       -0.18860
H          0.91964       -0.58668       -0.82444
H          2.09550        0.35251        0.10845
H         -0.52116       -0.82339        1.20195
H          1.06671       -1.54492        1.40618
H          0.55468       -0.35484        3.43351
H          1.87805        0.45473        2.62365
H          0.38899        2.09801        3.51422
H          0.34706        2.22386        1.77829
H         -1.92914        2.45098        2.79569
H         -1.83730        1.10737        1.66845
H         -1.99008       -0.43738        3.37447
H         -3.35768        2.63526        5.04041
H         -2.79076        2.02671        6.58206
H         -0.78037        0.72460        6.97260
H          1.37220        0.13507        7.94011
H          3.31646        1.66387        7.73142
H          3.06365        3.82158        6.53930
H         -0.29514        6.04399        4.32178

--Link1--
%chk=JID_10854.chk
%mem=8GB
%nprocshared=4
# B3LYP/6-311++G(d,p) empiricaldispersion=gd3bj scf=xqc pop=npa geom=check

CID_31482684_JID_10854_Energie_neutraal

0 1

--Link1--
%chk=JID_10854.chk
%mem=8GB
%nprocshared=4
# B3LYP/6-311++G(d,p) empiricaldispersion=gd3bj scf=xqc pop=npa geom=check

CID_31482684_JID_10854_Energie_kation

1 2

--Link1--
%chk=JID_10854.chk
%mem=8GB
%nprocshared=4
# B3LYP/6-311++G(d,p) empiricaldispersion=gd3bj scf=xqc pop=npa geom=check

CID_31482684_JID_10854_Energie_anion

-1 2
