%chk=JID_7118.chk
%mem=8GB
%nprocshared=4
# opt freq B3LYP/6-31G(d) empiricaldispersion=gd3bj scf=xqc

CID_114695021_JID_7118_neutraal

0 1
C          1.02759        0.03631       -0.08899
C          0.29247       -0.73324       -1.18986
C          1.26250       -1.25421       -2.28750
C          2.04883       -2.48218       -1.80736
C          1.12350       -3.53670       -1.20354
C          0.22118       -2.94038       -0.12692
N         -0.55478       -1.79959       -0.61781
N          0.51373       -1.57723       -3.50888
C          0.93236       -1.58214       -4.80160
O          0.15813       -1.97866       -5.67339
C          2.29617       -1.05106       -5.16549
C          2.16834        0.35276       -5.73541
N          1.92737        1.35531       -4.71489
C          0.74686        1.98029       -4.43508
C          1.01391        2.85528       -3.40863
C          2.38296        2.68146       -3.13900
N          2.94124        1.75554       -3.92263
H          0.32175        0.41250        0.65993
H          1.54793        0.90227       -0.51194
H          1.77282       -0.57536        0.42809
H         -0.39199       -0.01286       -1.65765
H          1.97547       -0.46432       -2.53200
H          2.77909       -2.17328       -1.04956
H          2.61997       -2.92729       -2.63035
H          1.72371       -4.34637       -0.77285
H          0.50875       -3.98594       -1.99340
H          0.81432       -2.64821        0.74693
H         -0.47546       -3.70960        0.22513
H         -1.20313       -2.12841       -1.33204
H         -0.40205       -1.99393       -3.39576
H          2.99282       -1.09567       -4.32535
H          2.70128       -1.72232       -5.93266
H          3.09555        0.64089       -6.24413
H          1.35523        0.42216       -6.46711
H         -0.16136        1.75765       -4.97785
H          0.31995        3.52793       -2.92593
H          2.99520        3.18542       -2.40229

--Link1--
%chk=JID_7118.chk
%mem=8GB
%nprocshared=4
# B3LYP/6-311++G(d,p) empiricaldispersion=gd3bj scf=xqc pop=npa geom=check

CID_114695021_JID_7118_Energie_neutraal

0 1

--Link1--
%chk=JID_7118.chk
%mem=8GB
%nprocshared=4
# B3LYP/6-311++G(d,p) empiricaldispersion=gd3bj scf=xqc pop=npa geom=check

CID_114695021_JID_7118_Energie_kation

1 2

--Link1--
%chk=JID_7118.chk
%mem=8GB
%nprocshared=4
# B3LYP/6-311++G(d,p) empiricaldispersion=gd3bj scf=xqc pop=npa geom=check

CID_114695021_JID_7118_Energie_anion

-1 2
