%chk=JID_5116.chk
%mem=8GB
%nprocshared=4
# opt freq B3LYP/6-31G(d) empiricaldispersion=gd3bj scf=xqc

CID_101687910_JID_5116_neutraal

0 1
C          0.90767       -0.03682        0.01091
C          0.35994        0.47046       -1.29858
O         -0.83467        0.30171       -1.56483
C          1.25301        1.23896       -2.25311
C          1.16695        2.75968       -2.00118
C          1.52390        3.28172       -0.58591
C          3.01245        3.16934       -0.21708
C          3.89800        4.15184       -0.98234
C          3.41636        5.58913       -0.81620
C          1.94371        5.73924       -1.18266
C          1.07033        4.74744       -0.41707
C          2.65941        0.72483       -2.44759
O          3.57083        1.39037       -2.92389
O          2.77639       -0.58769       -2.11060
C          4.08449       -1.13086       -2.30861
H          1.02400       -1.12208       -0.04198
H          0.21038        0.22041        0.81322
H          1.87161        0.41659        0.24584
H          0.80211        1.06811       -3.24388
H          1.76944        3.28118       -2.75406
H          0.12684        3.05245       -2.20390
H          0.94979        2.69954        0.14367
H          3.11851        3.37621        0.85650
H          3.38274        2.15075       -0.35587
H          3.91691        3.89559       -2.04701
H          4.92988        4.06937       -0.62202
H          4.02251        6.25663       -1.43893
H          3.56516        5.90290        0.22447
H          1.81556        5.59571       -2.26171
H          1.61547        6.76119       -0.96088
H          0.02488        4.86131       -0.72712
H          1.10299        5.00367        0.65028
H          4.32679       -1.15514       -3.37538
H          4.83127       -0.55443       -1.75291
H          4.08680       -2.15534       -1.92667

--Link1--
%chk=JID_5116.chk
%mem=8GB
%nprocshared=4
# B3LYP/6-311++G(d,p) empiricaldispersion=gd3bj scf=xqc pop=npa geom=check

CID_101687910_JID_5116_Energie_neutraal

0 1

--Link1--
%chk=JID_5116.chk
%mem=8GB
%nprocshared=4
# B3LYP/6-311++G(d,p) empiricaldispersion=gd3bj scf=xqc pop=npa geom=check

CID_101687910_JID_5116_Energie_kation

1 2

--Link1--
%chk=JID_5116.chk
%mem=8GB
%nprocshared=4
# B3LYP/6-311++G(d,p) empiricaldispersion=gd3bj scf=xqc pop=npa geom=check

CID_101687910_JID_5116_Energie_anion

-1 2
