%chk=JID_3587.chk
%mem=8GB
%nprocshared=4
# opt freq B3LYP/6-31G(d) empiricaldispersion=gd3bj scf=xqc

CID_123720672_JID_3587_neutraal

0 1
C          1.02630        0.07692        0.05823
C          0.19493        0.10941       -1.21566
C          0.59547       -0.95845       -2.24134
C          0.51225       -2.42353       -1.75813
C         -0.88393       -2.76343       -1.22128
C          0.86846       -3.43233       -2.87695
N          2.22944       -3.24437       -3.38463
C          2.63281       -4.28477       -4.30631
C          2.68625       -3.89350       -5.82339
C          3.64432       -2.72105       -6.12290
C          3.15508       -5.11456       -6.64786
C          1.27909       -3.50473       -6.32098
N          3.93085       -4.63286       -3.77406
H          0.85154       -0.83908        0.62977
H          0.76192        0.92321        0.70041
H          2.09485        0.14513       -0.16892
H         -0.86748        0.02055       -0.96446
H          0.31593        1.09430       -1.68347
H         -0.03915       -0.83546       -3.12847
H          1.62033       -0.73727       -2.56274
H          1.23060       -2.56604       -0.94049
H         -1.65469       -2.57030       -1.97520
H         -0.94635       -3.81961       -0.93742
H         -1.12444       -2.17875       -0.32855
H          0.77646       -4.44379       -2.46062
H          0.14154       -3.34659       -3.69273
H          2.29712       -2.33745       -3.83825
H          1.99733       -5.17476       -4.20695
H          4.67589       -2.95644       -5.84120
H          3.64995       -2.48819       -7.19457
H          3.35016       -1.80660       -5.59842
H          2.50345       -5.97917       -6.47804
H          3.14107       -4.89657       -7.72205
H          4.17810       -5.40868       -6.38917
H          0.55305       -4.29814       -6.11099
H          0.92351       -2.58369       -5.84731
H          1.27534       -3.33286       -7.40366
H          4.47273       -3.77306       -3.72593
H          3.77318       -4.86595       -2.79462

--Link1--
%chk=JID_3587.chk
%mem=8GB
%nprocshared=4
# B3LYP/6-311++G(d,p) empiricaldispersion=gd3bj scf=xqc pop=npa geom=check

CID_123720672_JID_3587_Energie_neutraal

0 1

--Link1--
%chk=JID_3587.chk
%mem=8GB
%nprocshared=4
# B3LYP/6-311++G(d,p) empiricaldispersion=gd3bj scf=xqc pop=npa geom=check

CID_123720672_JID_3587_Energie_kation

1 2

--Link1--
%chk=JID_3587.chk
%mem=8GB
%nprocshared=4
# B3LYP/6-311++G(d,p) empiricaldispersion=gd3bj scf=xqc pop=npa geom=check

CID_123720672_JID_3587_Energie_anion

-1 2
