%chk=JID_10225.chk
%mem=8GB
%nprocshared=4
# opt freq B3LYP/6-31G(d) empiricaldispersion=gd3bj scf=xqc

CID_20505392_JID_10225_neutraal

0 1
C          1.06958        0.01572       -0.07008
N          1.03092        0.53385       -1.42235
C          1.14022        1.99188       -1.51164
C          1.11040        2.53064       -2.93246
C          1.15051        1.70284       -4.00846
C          1.06723        2.21356       -5.43896
C          1.58514        3.64806       -5.56181
C          1.01179        4.48768       -6.71885
N          0.97694        5.84810       -6.16207
C          0.91951        5.80463       -4.79210
C          0.59632        6.74288       -3.90083
C          0.54498        6.42636       -2.42669
C          0.50934        4.91784       -2.05335
C          0.97494        3.97571       -3.13845
C          1.20271        4.46285       -4.36380
C          1.26290        0.20767       -3.81606
C          1.82500       -0.18683       -2.41643
C          3.33798       -0.03222       -2.39495
C          4.19243        0.58752       -1.30833
C          4.14829       -0.90254       -1.45744
H          0.89583       -1.06598       -0.06161
H          0.26458        0.45912        0.52709
H          2.00830        0.21286        0.45075
H          0.28949        2.41436       -0.96258
H          2.05049        2.35316       -1.02076
H          1.66066        1.57631       -6.10540
H          0.02461        2.13549       -5.77149
H          2.68230        3.64062       -5.63373
H         -0.00280        4.17511       -6.99178
H          1.64787        4.44466       -7.60804
H          0.34970        6.51853       -6.59381
H          0.37824        7.75553       -4.21987
H          1.41897        6.89100       -1.95278
H         -0.33609        6.91180       -1.98966
H         -0.52301        4.65351       -1.78860
H          1.11260        4.78134       -1.14758
H          1.89664       -0.22413       -4.60031
H          0.26217       -0.22589       -3.94574
H          1.61603       -1.26116       -2.31806
H          3.73813        0.05087       -3.40296
H          5.09520        1.10285       -1.62167
H          3.75136        1.02212       -0.42467
H          3.63161       -1.47234       -0.69398
H          5.02365       -1.40019       -1.85960

--Link1--
%chk=JID_10225.chk
%mem=8GB
%nprocshared=4
# B3LYP/6-311++G(d,p) empiricaldispersion=gd3bj scf=xqc pop=npa geom=check

CID_20505392_JID_10225_Energie_neutraal

0 1

--Link1--
%chk=JID_10225.chk
%mem=8GB
%nprocshared=4
# B3LYP/6-311++G(d,p) empiricaldispersion=gd3bj scf=xqc pop=npa geom=check

CID_20505392_JID_10225_Energie_kation

1 2

--Link1--
%chk=JID_10225.chk
%mem=8GB
%nprocshared=4
# B3LYP/6-311++G(d,p) empiricaldispersion=gd3bj scf=xqc pop=npa geom=check

CID_20505392_JID_10225_Energie_anion

-1 2
