%chk=JID_436.chk
%mem=8GB
%nprocshared=4
# opt freq B3LYP/6-31G(d) empiricaldispersion=gd3bj scf=xqc

CID_66645961_JID_436_neutraal

0 1
C          1.05634        0.02618        0.07836
C          0.01989       -0.74526        0.87054
N          0.70024       -1.60711        1.86425
C          0.97892       -1.11949        3.09524
C          1.62239       -1.90829        4.04175
C          1.97967       -3.21892        3.72447
C          1.68933       -3.69592        2.44561
C          1.04548       -2.87188        1.53023
C          2.74812       -4.06588        4.70074
O          4.12090       -3.87878        4.41065
H          1.66197        0.66028        0.73376
H          0.56930        0.66660       -0.66306
H          1.73543       -0.65236       -0.44781
H         -0.65632       -0.07303        1.40930
H         -0.58633       -1.38576        0.22118
H          0.69586       -0.09236        3.30716
H          1.86475       -1.49072        5.01745
H          1.98688       -4.70127        2.15231
H          0.81493       -3.20959        0.52383
H          2.54696       -3.76323        5.73358
H          2.48960       -5.12427        4.59150
H          4.62474       -4.42174        5.04302

--Link1--
%chk=JID_436.chk
%mem=8GB
%nprocshared=4
# B3LYP/6-311++G(d,p) empiricaldispersion=gd3bj scf=xqc pop=npa geom=check

CID_66645961_JID_436_Energie_neutraal

0 1

--Link1--
%chk=JID_436.chk
%mem=8GB
%nprocshared=4
# B3LYP/6-311++G(d,p) empiricaldispersion=gd3bj scf=xqc pop=npa geom=check

CID_66645961_JID_436_Energie_kation

1 2

--Link1--
%chk=JID_436.chk
%mem=8GB
%nprocshared=4
# B3LYP/6-311++G(d,p) empiricaldispersion=gd3bj scf=xqc pop=npa geom=check

CID_66645961_JID_436_Energie_anion

-1 2
