%chk=JID_2653.chk
%mem=8GB
%nprocshared=4
# opt freq B3LYP/6-31G(d) empiricaldispersion=gd3bj scf=xqc

CID_11788533_JID_2653_neutraal

0 1
C          0.98084        0.07579        0.06236
C          0.24944       -1.25047       -0.08997
C          0.57499       -2.25306        1.02969
C          0.18353       -1.84008        2.45807
C         -1.29315       -1.56332        2.69218
O          0.15230       -3.61066        0.74533
C         -1.08294       -3.89360        0.28541
O         -1.99040       -3.10488        0.07342
C         -1.28713       -5.35435        0.14225
C         -0.38371       -6.33085       -0.07648
C         -0.82865       -7.76911       -0.13985
C          1.09006       -6.12959       -0.29741
H          0.65825        0.60894        0.96148
H          0.77333        0.71981       -0.79828
H          2.06341       -0.07554        0.11749
H         -0.82325       -1.04347       -0.14312
H          0.51714       -1.69794       -1.05526
H          1.66995       -2.33952        1.04169
H          0.48584       -2.63772        3.14836
H          0.75106       -0.94686        2.74379
H         -1.89345       -2.46970        2.58003
H         -1.44343       -1.20271        3.71544
H         -1.67577       -0.79683        2.01299
H         -2.34106       -5.61011        0.22452
H         -0.61249       -8.19152       -1.12665
H         -0.30176       -8.36070        0.61608
H         -1.90291       -7.88164        0.04116
H          1.33128       -5.13480       -0.68024
H          1.63931       -6.29892        0.63389
H          1.46322       -6.83755       -1.04601

--Link1--
%chk=JID_2653.chk
%mem=8GB
%nprocshared=4
# B3LYP/6-311++G(d,p) empiricaldispersion=gd3bj scf=xqc pop=npa geom=check

CID_11788533_JID_2653_Energie_neutraal

0 1

--Link1--
%chk=JID_2653.chk
%mem=8GB
%nprocshared=4
# B3LYP/6-311++G(d,p) empiricaldispersion=gd3bj scf=xqc pop=npa geom=check

CID_11788533_JID_2653_Energie_kation

1 2

--Link1--
%chk=JID_2653.chk
%mem=8GB
%nprocshared=4
# B3LYP/6-311++G(d,p) empiricaldispersion=gd3bj scf=xqc pop=npa geom=check

CID_11788533_JID_2653_Energie_anion

-1 2
