%chk=JID_1402.chk
%mem=8GB
%nprocshared=4
# opt freq B3LYP/6-31G(d) empiricaldispersion=gd3bj scf=xqc

CID_65959356_JID_1402_neutraal

0 1
C          0.95953        0.08551       -0.03242
C          0.52547        1.48113        0.43694
C          1.24863        2.51486       -0.43146
C         -1.03147        1.63397        0.44775
C         -1.67928        0.52419        1.29895
C         -1.53588        2.99659        0.99274
N         -1.49739        4.07228       -0.00082
C         -2.03287        5.31249        0.58119
C         -1.00061        6.00889        1.49716
N         -1.29511        7.28590        0.79926
C         -1.75360        6.49617       -0.37406
H          0.52783       -0.15562       -1.00961
H          0.66100       -0.68961        0.67957
H          2.04982        0.01919       -0.11962
H          0.89234        1.60491        1.46463
H          0.78423        2.60161       -1.41935
H          1.25905        3.49596        0.05118
H          2.29950        2.24307       -0.58246
H         -1.40512        1.50815       -0.57787
H         -1.27775        0.52358        2.31800
H         -2.76480        0.65815        1.36259
H         -1.51810       -0.46561        0.86184
H         -2.57902        2.88740        1.31522
H         -0.95187        3.26390        1.88184
H         -0.56676        4.17522       -0.39230
H         -3.05842        5.27125        0.96430
H         -1.24765        6.00856        2.56345
H          0.04418        5.69412        1.38412
H         -2.05009        7.81443        1.23775
H         -0.95998        6.34962       -1.11767
H         -2.63030        6.90784       -0.88309

--Link1--
%chk=JID_1402.chk
%mem=8GB
%nprocshared=4
# B3LYP/6-311++G(d,p) empiricaldispersion=gd3bj scf=xqc pop=npa geom=check

CID_65959356_JID_1402_Energie_neutraal

0 1

--Link1--
%chk=JID_1402.chk
%mem=8GB
%nprocshared=4
# B3LYP/6-311++G(d,p) empiricaldispersion=gd3bj scf=xqc pop=npa geom=check

CID_65959356_JID_1402_Energie_kation

1 2

--Link1--
%chk=JID_1402.chk
%mem=8GB
%nprocshared=4
# B3LYP/6-311++G(d,p) empiricaldispersion=gd3bj scf=xqc pop=npa geom=check

CID_65959356_JID_1402_Energie_anion

-1 2
