%chk=JID_5001.chk
%mem=8GB
%nprocshared=4
# opt freq B3LYP/6-31G(d) empiricaldispersion=gd3bj scf=xqc

CID_67428703_JID_5001_neutraal

0 1
C          1.00419       -0.06261       -0.07786
C          0.42687       -1.40189        0.38385
C          0.83831       -1.67387        1.83342
C         -1.10027       -1.44144        0.26471
C         -1.58179       -1.52703       -1.16960
O         -1.90370       -2.61001       -1.66249
C         -1.60206       -0.24769       -1.99718
O         -2.14551        0.87744       -1.33244
C         -3.57737        0.92902       -1.30997
C         -4.23577        1.40560       -2.63226
C         -4.37947        0.28347       -3.64081
C         -3.80159        0.30303       -4.85410
C         -2.95698        1.44506       -5.34650
C         -2.94269        2.62372       -4.41447
C         -3.52119        2.61283       -3.20217
H          0.36993        0.78034        0.21424
H          1.14536       -0.04468       -1.16069
H          1.99682        0.10660        0.35512
H          0.86164       -2.19343       -0.24004
H          0.44882       -0.90464        2.50867
H          0.46240       -2.64600        2.16984
H          1.92927       -1.69166        1.93156
H         -1.48969       -2.33198        0.77550
H         -1.56960       -0.58372        0.75855
H         -0.57645       -0.00427       -2.27677
H         -2.10463       -0.45670       -2.93775
H         -3.98360       -0.03341       -0.97596
H         -3.82902        1.65693       -0.52832
H         -5.26051        1.71790       -2.38964
H         -4.96228       -0.58450       -3.34161
H         -3.91572       -0.55002       -5.51750
H         -1.92863        1.09339       -5.49080
H         -3.33700        1.76882       -6.32106
H         -2.42691        3.51717       -4.75502
H         -3.46779        3.49905       -2.57513

--Link1--
%chk=JID_5001.chk
%mem=8GB
%nprocshared=4
# B3LYP/6-311++G(d,p) empiricaldispersion=gd3bj scf=xqc pop=npa geom=check

CID_67428703_JID_5001_Energie_neutraal

0 1

--Link1--
%chk=JID_5001.chk
%mem=8GB
%nprocshared=4
# B3LYP/6-311++G(d,p) empiricaldispersion=gd3bj scf=xqc pop=npa geom=check

CID_67428703_JID_5001_Energie_kation

1 2

--Link1--
%chk=JID_5001.chk
%mem=8GB
%nprocshared=4
# B3LYP/6-311++G(d,p) empiricaldispersion=gd3bj scf=xqc pop=npa geom=check

CID_67428703_JID_5001_Energie_anion

-1 2
