%chk=JID_10897.chk
%mem=8GB
%nprocshared=4
# opt freq B3LYP/6-31G(d) empiricaldispersion=gd3bj scf=xqc

CID_110875143_JID_10897_neutraal

0 1
C          1.06038       -0.02465        0.07580
C          0.17240       -0.71594        1.06759
O         -0.72135       -0.08797        1.64323
N          0.29570       -2.04613        1.33235
C          1.22797       -3.02978        0.96147
C          0.87563       -4.35525        1.23620
C          1.72686       -5.41784        0.90245
C          2.96858       -5.18950        0.31173
C          3.32335       -3.85690        0.05907
C          2.46946       -2.79013        0.38245
N          3.85016       -6.20907       -0.08084
C          3.67938       -7.59404       -0.22065
N          2.45975       -8.18403       -0.09563
C          2.34103       -9.51565       -0.27264
N          3.30796      -10.39887       -0.56966
C          4.49431       -9.78604       -0.68497
C          4.75828       -8.43783       -0.53322
C          6.14845       -8.33555       -0.75971
N          6.72262       -9.51276       -1.03516
N          5.68752      -10.37802       -0.98127
H          0.59051        0.91833       -0.22305
H          1.17857       -0.62380       -0.82982
H          2.02419        0.20804        0.53380
H         -0.47091       -2.35985        1.91795
H         -0.07971       -4.59299        1.69884
H          1.39642       -6.42612        1.13265
H          4.28077       -3.62489       -0.40221
H          2.83964       -1.79304        0.18782
H          4.78171       -5.88812       -0.30335
H          1.33933       -9.92062       -0.16245
H          6.77172       -7.45132       -0.73436
H          5.85322      -11.36167       -1.15617

--Link1--
%chk=JID_10897.chk
%mem=8GB
%nprocshared=4
# B3LYP/6-311++G(d,p) empiricaldispersion=gd3bj scf=xqc pop=npa geom=check

CID_110875143_JID_10897_Energie_neutraal

0 1

--Link1--
%chk=JID_10897.chk
%mem=8GB
%nprocshared=4
# B3LYP/6-311++G(d,p) empiricaldispersion=gd3bj scf=xqc pop=npa geom=check

CID_110875143_JID_10897_Energie_kation

1 2

--Link1--
%chk=JID_10897.chk
%mem=8GB
%nprocshared=4
# B3LYP/6-311++G(d,p) empiricaldispersion=gd3bj scf=xqc pop=npa geom=check

CID_110875143_JID_10897_Energie_anion

-1 2
