%chk=JID_4434.chk
%mem=8GB
%nprocshared=4
# opt freq B3LYP/6-31G(d) empiricaldispersion=gd3bj scf=xqc

CID_24846477_JID_4434_neutraal

0 1
C          1.06512       -0.07051       -0.02806
C          0.43021        1.32007        0.10611
C          1.07759        2.05627        1.29903
C          0.45469        3.40182        1.75580
C         -0.12056        4.19132        0.56359
N         -1.37835        3.71146        0.04844
C         -1.82648        2.43212       -0.13046
N         -3.03267        2.50289       -0.65772
N         -3.31025        3.83729       -0.81278
N         -2.30069        4.58280       -0.39072
C         -1.09179        1.18933        0.22180
C         -0.51824        3.28391        2.97612
C          0.16521        2.67612        4.21074
C         -1.10112        4.64592        3.38281
H          0.69062       -0.58490       -0.91954
H          0.84101       -0.69578        0.84298
H          2.15366        0.00568       -0.12196
H          0.67711        1.86459       -0.81546
H          1.16415        1.36592        2.14249
H          2.11709        2.26741        1.00765
H          1.30498        3.99897        2.11982
H          0.58515        4.19611       -0.27587
H         -0.25971        5.24101        0.84907
H         -1.43998        0.40651       -0.46503
H         -1.37686        0.85933        1.22718
H         -1.36006        2.63301        2.71837
H          1.08555        3.21475        4.45994
H         -0.49574        2.71925        5.08376
H          0.41158        1.62155        4.06296
H         -1.74740        5.05886        2.60340
H         -1.71717        4.55385        4.28423
H         -0.30598        5.36973        3.59116

--Link1--
%chk=JID_4434.chk
%mem=8GB
%nprocshared=4
# B3LYP/6-311++G(d,p) empiricaldispersion=gd3bj scf=xqc pop=npa geom=check

CID_24846477_JID_4434_Energie_neutraal

0 1

--Link1--
%chk=JID_4434.chk
%mem=8GB
%nprocshared=4
# B3LYP/6-311++G(d,p) empiricaldispersion=gd3bj scf=xqc pop=npa geom=check

CID_24846477_JID_4434_Energie_kation

1 2

--Link1--
%chk=JID_4434.chk
%mem=8GB
%nprocshared=4
# B3LYP/6-311++G(d,p) empiricaldispersion=gd3bj scf=xqc pop=npa geom=check

CID_24846477_JID_4434_Energie_anion

-1 2
