%chk=JID_8727.chk
%mem=8GB
%nprocshared=4
# opt freq B3LYP/6-31G(d) empiricaldispersion=gd3bj scf=xqc

CID_71877670_JID_8727_neutraal

0 1
C          0.93405       -0.02042        0.07235
C          1.93466        0.79579       -1.17819
C          3.53690       -0.20827       -2.36548
C          0.37262        1.36632       -1.95843
C          2.01477        2.31130       -0.28415
C          2.57174        2.31340        1.13875
C          2.89806        3.70722        1.66842
C          3.67969        3.38644        2.93926
C          4.39219        2.07302        2.61975
N          3.78838        1.58982        1.38362
C          3.77750        0.24309        1.09647
O          3.97712       -0.63647        1.93051
C          3.61640       -0.06786       -0.39739
C          3.87448        1.52643       -1.58801
N          2.53628        1.30717       -2.93857
C          1.68497       -0.35215       -2.87326
O          1.06870       -0.90036       -3.77172
N          2.28133       -1.11528       -1.29479
H          1.50186       -0.53035        0.85336
H          0.23038       -0.72573       -0.39378
H          0.30144        0.71242        0.58624
H          3.47935       -1.31438       -2.68086
H          3.80891        0.10963       -3.43624
H          4.62555       -0.28990       -2.06838
H         -0.29793        1.78588       -1.19769
H          0.52497        2.17361       -2.68438
H         -0.23642        0.55585       -2.37358
H          2.30824        3.16306       -0.91446
H          0.98223        2.63535       -0.09134
H          1.81511        1.87171        1.80404
H          3.53929        4.25451        0.96662
H          2.00564        4.30791        1.86621
H          4.37436        4.18304        3.22067
H          2.98635        3.23622        3.77548
H          5.46036        2.22188        2.43271
H          4.27509        1.34889        3.43264
H          4.49421       -0.74914       -0.46129
H          4.84413        1.49314       -2.12808
H          3.94676        2.51811       -1.14649
H          2.62147        1.75056       -3.84828
H          2.20692       -2.11819       -1.15953

--Link1--
%chk=JID_8727.chk
%mem=8GB
%nprocshared=4
# B3LYP/6-311++G(d,p) empiricaldispersion=gd3bj scf=xqc pop=npa geom=check

CID_71877670_JID_8727_Energie_neutraal

0 1

--Link1--
%chk=JID_8727.chk
%mem=8GB
%nprocshared=4
# B3LYP/6-311++G(d,p) empiricaldispersion=gd3bj scf=xqc pop=npa geom=check

CID_71877670_JID_8727_Energie_kation

1 2

--Link1--
%chk=JID_8727.chk
%mem=8GB
%nprocshared=4
# B3LYP/6-311++G(d,p) empiricaldispersion=gd3bj scf=xqc pop=npa geom=check

CID_71877670_JID_8727_Energie_anion

-1 2
