%chk=JID_9034.chk
%mem=8GB
%nprocshared=4
# opt freq B3LYP/6-31G(d) empiricaldispersion=gd3bj scf=xqc

CID_83997405_JID_9034_neutraal

0 1
C          0.91745        0.04546       -0.03345
C          0.25334        0.04871       -1.40947
C          1.12805       -0.55871       -2.55389
C          0.97239       -2.10299       -2.49673
C          2.07187       -3.00829       -3.15953
C          1.79748       -4.03561       -2.04854
C          1.36508       -2.84789       -1.17772
N          0.67192        0.02741       -3.86106
C          1.11723        1.44105       -3.98863
C          0.58293        2.11560       -5.25641
C          0.95072        1.32922       -6.51019
C          0.56461       -0.15043       -6.37885
C          1.16484       -0.69755       -5.05597
N         -0.90747       -0.24224       -6.42612
C         -1.43365       -1.55022       -6.82386
C         -1.79590       -2.43311       -5.63591
C         -2.95463       -1.96219       -4.71370
C         -3.35605       -3.44550       -4.58604
C         -2.68034       -3.66970       -5.95496
H          0.84046       -0.92404        0.46069
H          0.41253        0.76544        0.62026
H          1.97097        0.33392       -0.09563
H         -0.71126       -0.47140       -1.34875
H          0.00427        1.09421       -1.60823
H          2.18325       -0.30194       -2.39336
H         -0.04408       -2.39095       -2.80914
H          1.87536       -3.39001       -4.16383
H          3.08212       -2.58340       -3.13181
H          2.66300       -4.59961       -1.69368
H          0.98441       -4.73346       -2.28010
H          2.20452       -2.40348       -0.63038
H          0.54621       -3.05603       -0.48429
H          2.21447        1.49265       -3.98691
H          0.77772        2.05306       -3.14961
H          0.99218        3.12991       -5.33131
H         -0.50637        2.22416       -5.18489
H          0.47608        1.78135       -7.38983
H          2.03424        1.40212       -6.67168
H          1.00146       -0.68500       -7.23077
H          0.88648       -1.74614       -5.01630
H          2.26151       -0.65916       -5.10359
H         -1.26621        0.01572       -5.50375
H         -2.33595       -1.35961       -7.41719
H         -0.74240       -2.07639       -7.49210
H         -0.91556       -2.74258       -5.06156
H         -2.65120       -1.47239       -3.78469
H         -3.71065       -1.34458       -5.21267
H         -4.42891       -3.64764       -4.54498
H         -2.86066       -3.96588       -3.75808
H         -3.35971       -3.54089       -6.80547
H         -2.14639       -4.61707       -6.06753

--Link1--
%chk=JID_9034.chk
%mem=8GB
%nprocshared=4
# B3LYP/6-311++G(d,p) empiricaldispersion=gd3bj scf=xqc pop=npa geom=check

CID_83997405_JID_9034_Energie_neutraal

0 1

--Link1--
%chk=JID_9034.chk
%mem=8GB
%nprocshared=4
# B3LYP/6-311++G(d,p) empiricaldispersion=gd3bj scf=xqc pop=npa geom=check

CID_83997405_JID_9034_Energie_kation

1 2

--Link1--
%chk=JID_9034.chk
%mem=8GB
%nprocshared=4
# B3LYP/6-311++G(d,p) empiricaldispersion=gd3bj scf=xqc pop=npa geom=check

CID_83997405_JID_9034_Energie_anion

-1 2
