%chk=JID_9257.chk
%mem=8GB
%nprocshared=4
# opt freq B3LYP/6-31G(d) empiricaldispersion=gd3bj scf=xqc

CID_112584302_JID_9257_neutraal

0 1
C          0.97736        0.06479       -0.07273
C          1.20758        0.44164       -1.53273
C          1.90721       -0.67226       -2.33201
C          1.06931       -1.94244       -2.43639
N          1.56002       -3.04748       -1.82771
C          0.81998       -4.18266       -1.90517
C         -0.40660       -4.30921       -2.56226
C         -0.86296       -3.15766       -3.19963
C         -0.13850       -1.96573       -3.13163
N         -1.14387       -5.49370       -2.64532
C         -0.32841       -6.68537       -2.91569
C         -2.25907       -5.71506       -1.67945
C         -3.55402       -4.98952       -2.08072
C         -3.79308       -3.63639       -1.41636
C         -3.52278       -3.66618        0.08098
C         -2.09832       -4.14205        0.37182
C         -1.87261       -5.54928       -0.19940
C         -1.82409       -4.12448        1.87580
N          2.30225       -0.15463       -3.65596
H          0.28744       -0.77946        0.02121
H          0.54285        0.91128        0.46871
H          1.91950       -0.20167        0.41677
H          0.24661        0.71048       -1.98870
H          1.82818        1.34706       -1.55201
H          2.83931       -0.92605       -1.81080
H          1.26110       -5.02462       -1.38063
H         -1.78717       -3.18741       -3.76995
H         -0.52069       -1.07814       -3.62357
H          0.18218       -7.04085       -2.01400
H         -0.96559       -7.49674       -3.28498
H          0.41611       -6.49129       -3.69688
H         -2.51036       -6.78071       -1.78913
H         -4.39400       -5.63580       -1.78894
H         -3.62327       -4.88672       -3.17027
H         -4.83144       -3.33012       -1.59156
H         -3.17125       -2.86532       -1.87769
H         -4.25049       -4.32439        0.57249
H         -3.67494       -2.66133        0.49289
H         -1.39706       -3.44092       -0.09324
H         -0.83698       -5.86531       -0.02708
H         -2.49405       -6.24755        0.37965
H         -0.79677       -4.43985        2.08613
H         -1.95401       -3.11552        2.28152
H         -2.50268       -4.79500        2.41389
H          2.77166       -0.91070       -4.15575
H          1.47233        0.07317       -4.19733

--Link1--
%chk=JID_9257.chk
%mem=8GB
%nprocshared=4
# B3LYP/6-311++G(d,p) empiricaldispersion=gd3bj scf=xqc pop=npa geom=check

CID_112584302_JID_9257_Energie_neutraal

0 1

--Link1--
%chk=JID_9257.chk
%mem=8GB
%nprocshared=4
# B3LYP/6-311++G(d,p) empiricaldispersion=gd3bj scf=xqc pop=npa geom=check

CID_112584302_JID_9257_Energie_kation

1 2

--Link1--
%chk=JID_9257.chk
%mem=8GB
%nprocshared=4
# B3LYP/6-311++G(d,p) empiricaldispersion=gd3bj scf=xqc pop=npa geom=check

CID_112584302_JID_9257_Energie_anion

-1 2
