%chk=JID_3357.chk
%mem=8GB
%nprocshared=4
# opt freq B3LYP/6-31G(d) empiricaldispersion=gd3bj scf=xqc

CID_130677304_JID_3357_neutraal

0 1
C          0.90950        0.03098        0.02916
N          0.61288        0.59427       -1.27764
C          0.08561       -0.32144       -2.26064
C          0.76174       -0.57319       -3.58508
C          0.76056       -1.64461       -2.54173
C          1.09962        1.85770       -1.54808
O          1.93930        2.40267       -0.82161
N          0.73666        2.52418       -2.67551
C         -0.49135        2.57122       -3.29100
C         -0.78881        3.34775       -4.38778
O         -2.10679        3.17564       -4.68654
C         -2.53729        2.30905       -3.72991
N         -1.62028        1.92620       -2.87116
H          0.19086       -0.75835        0.26890
H          0.84804        0.80716        0.79851
H          1.92482       -0.37669        0.01847
H         -1.00111       -0.35879       -2.23757
H          0.12393       -0.69847       -4.45197
H          1.70173       -0.07678       -3.79316
H          1.70283       -1.86852       -2.05652
H          0.12597       -2.50860       -2.70015
H          1.34968        3.30155       -2.87377
H         -0.23584        4.02236       -5.02367
H         -3.57992        2.02571       -3.76571

--Link1--
%chk=JID_3357.chk
%mem=8GB
%nprocshared=4
# B3LYP/6-311++G(d,p) empiricaldispersion=gd3bj scf=xqc pop=npa geom=check

CID_130677304_JID_3357_Energie_neutraal

0 1

--Link1--
%chk=JID_3357.chk
%mem=8GB
%nprocshared=4
# B3LYP/6-311++G(d,p) empiricaldispersion=gd3bj scf=xqc pop=npa geom=check

CID_130677304_JID_3357_Energie_kation

1 2

--Link1--
%chk=JID_3357.chk
%mem=8GB
%nprocshared=4
# B3LYP/6-311++G(d,p) empiricaldispersion=gd3bj scf=xqc pop=npa geom=check

CID_130677304_JID_3357_Energie_anion

-1 2
