%chk=JID_10774.chk
%mem=8GB
%nprocshared=4
# opt freq B3LYP/6-31G(d) empiricaldispersion=gd3bj scf=xqc

CID_145877338_JID_10774_neutraal

0 1
C          1.00557       -0.07204       -0.06913
C          0.46878       -1.44985        0.02922
N         -0.78317       -1.78671        0.26467
C         -0.80363       -3.15335        0.25456
N         -1.89558       -3.92186        0.45455
C         -1.66732       -5.24957        0.39550
C         -0.43797       -5.85093        0.15347
C          0.68634       -5.04767       -0.05142
C          0.45801       -3.67226        0.00766
N          1.25562       -2.56485       -0.13361
C          2.02309       -5.53732       -0.30855
N          3.14767       -4.87491       -0.48442
C          4.05682       -5.88578       -0.67745
N          3.53480       -7.11993       -0.63102
O          2.18216       -6.89104       -0.38555
C          5.50966       -5.68535       -0.91277
C          6.04681       -4.26248       -0.99947
C          5.41945       -3.22988       -1.97489
C          5.80087       -2.14011       -0.95015
C          5.78291       -3.23667        0.13628
H          0.39947        0.61769        0.52621
H          0.98983        0.26614       -1.10956
H          2.03562       -0.02132        0.29746
H         -2.55165       -5.86252        0.55790
H         -0.37076       -6.93462        0.12899
H          2.24953       -2.58115       -0.32459
H          6.05230       -6.20681       -0.11307
H          5.77240       -6.20546       -1.84362
H          7.13152       -4.34338       -1.18562
H          5.90848       -3.14888       -2.94967
H          4.34057       -3.31927       -2.13390
H          5.07495       -1.33332       -0.82257
H          6.79298       -1.70586       -1.11945
H          4.81964       -3.32745        0.64704
H          6.57002       -3.16121        0.89175

--Link1--
%chk=JID_10774.chk
%mem=8GB
%nprocshared=4
# B3LYP/6-311++G(d,p) empiricaldispersion=gd3bj scf=xqc pop=npa geom=check

CID_145877338_JID_10774_Energie_neutraal

0 1

--Link1--
%chk=JID_10774.chk
%mem=8GB
%nprocshared=4
# B3LYP/6-311++G(d,p) empiricaldispersion=gd3bj scf=xqc pop=npa geom=check

CID_145877338_JID_10774_Energie_kation

1 2

--Link1--
%chk=JID_10774.chk
%mem=8GB
%nprocshared=4
# B3LYP/6-311++G(d,p) empiricaldispersion=gd3bj scf=xqc pop=npa geom=check

CID_145877338_JID_10774_Energie_anion

-1 2
