%chk=JID_6774.chk
%mem=8GB
%nprocshared=4
# opt freq B3LYP/6-31G(d) empiricaldispersion=gd3bj scf=xqc

CID_142904001_JID_6774_neutraal

0 1
C          1.07256       -0.01279       -0.06761
C          0.62922        1.33397       -0.61086
O          1.02186        1.48899       -1.98153
C          2.31818        1.84147       -2.18966
O          3.14219        2.05698       -1.30860
C          2.62058        1.97778       -3.67037
C          2.43991        0.71780       -4.49821
C          1.94615        0.81701       -5.75074
C          1.74518       -0.26107       -6.69450
C          1.20721       -0.07269       -7.90565
C          2.80723       -0.55925       -3.87899
C          4.06841       -0.88323       -3.52443
C          5.31421       -0.08603       -3.74536
C          1.70390       -1.53111       -3.58499
O          0.51837       -1.26690       -3.48845
O          2.12553       -2.80567       -3.47564
H          0.66618       -0.82611       -0.67670
H          0.73039       -0.14374        0.96297
H          2.16189       -0.11352       -0.08741
H         -0.46358        1.39749       -0.58316
H          1.01483        2.15916       -0.00113
H          1.99831        2.79970       -4.04680
H          3.65842        2.32068       -3.75959
H          1.67985        1.80674       -6.12281
H          2.04899       -1.26681       -6.41574
H          1.07473       -0.90975       -8.58428
H          0.88036        0.90276       -8.25128
H          4.24917       -1.83574       -3.02676
H          5.65308        0.34697       -2.79937
H          6.10508       -0.74333       -4.12115
H          5.18835        0.71539       -4.47717
H          1.29475       -3.30154       -3.32327

--Link1--
%chk=JID_6774.chk
%mem=8GB
%nprocshared=4
# B3LYP/6-311++G(d,p) empiricaldispersion=gd3bj scf=xqc pop=npa geom=check

CID_142904001_JID_6774_Energie_neutraal

0 1

--Link1--
%chk=JID_6774.chk
%mem=8GB
%nprocshared=4
# B3LYP/6-311++G(d,p) empiricaldispersion=gd3bj scf=xqc pop=npa geom=check

CID_142904001_JID_6774_Energie_kation

1 2

--Link1--
%chk=JID_6774.chk
%mem=8GB
%nprocshared=4
# B3LYP/6-311++G(d,p) empiricaldispersion=gd3bj scf=xqc pop=npa geom=check

CID_142904001_JID_6774_Energie_anion

-1 2
