%chk=JID_5478.chk
%mem=8GB
%nprocshared=4
# opt freq B3LYP/6-31G(d) empiricaldispersion=gd3bj scf=xqc

CID_108894472_JID_5478_neutraal

0 1
C          1.04481        0.08532       -0.02670
N          0.06538       -0.63887       -0.82717
C         -1.29552       -0.33791       -0.39227
C          0.24708       -0.48833       -2.28313
C          0.11989        0.91506       -2.90901
N          1.34825        1.69791       -2.81734
C          1.67970        2.68952       -3.67706
O          2.15515        3.73771       -3.24986
N          1.48090        2.51475       -5.00173
C          1.86283        1.31256       -5.68969
O          1.38695        1.41107       -7.02108
C          0.00340        1.07194       -7.16685
C         -0.20309       -0.43651       -7.32282
O         -0.16488       -1.07430       -6.04154
C         -0.32545       -2.48312       -6.15639
H          0.99496       -0.24372        1.01750
H          0.88059        1.16743       -0.04090
H          2.06384       -0.12241       -0.37062
H         -1.54671        0.72284       -0.49484
H         -2.02496       -0.92307       -0.96317
H         -1.42928       -0.61590        0.65933
H          1.21883       -0.91859       -2.55909
H         -0.49540       -1.13556       -2.76887
H         -0.18677        0.81927       -3.95292
H         -0.66986        1.50178       -2.42840
H          1.57968        1.99436       -1.87913
H          1.75387        3.34324       -5.50979
H          2.95756        1.29891       -5.72732
H          1.55030        0.40063       -5.18106
H         -0.58808        1.47922       -6.33945
H         -0.32806        1.56158       -8.08858
H         -1.18581       -0.62132       -7.77085
H          0.57883       -0.86055       -7.96280
H         -1.29465       -2.72288       -6.60427
H          0.48353       -2.91372       -6.75437
H         -0.28694       -2.91598       -5.15327

--Link1--
%chk=JID_5478.chk
%mem=8GB
%nprocshared=4
# B3LYP/6-311++G(d,p) empiricaldispersion=gd3bj scf=xqc pop=npa geom=check

CID_108894472_JID_5478_Energie_neutraal

0 1

--Link1--
%chk=JID_5478.chk
%mem=8GB
%nprocshared=4
# B3LYP/6-311++G(d,p) empiricaldispersion=gd3bj scf=xqc pop=npa geom=check

CID_108894472_JID_5478_Energie_kation

1 2

--Link1--
%chk=JID_5478.chk
%mem=8GB
%nprocshared=4
# B3LYP/6-311++G(d,p) empiricaldispersion=gd3bj scf=xqc pop=npa geom=check

CID_108894472_JID_5478_Energie_anion

-1 2
