%chk=JID_8925.chk
%mem=8GB
%nprocshared=4
# opt freq B3LYP/6-31G(d) empiricaldispersion=gd3bj scf=xqc

CID_2286866_JID_8925_neutraal

0 1
C          1.05721        0.04026        0.07146
C          0.14818       -0.87864       -0.73083
C          0.30829       -2.35711       -0.36700
C         -0.20296       -2.74067        1.02665
N         -1.65732       -2.62338        1.15686
C         -2.47295       -3.73038        0.64453
C         -2.58724       -4.87531        1.63982
C         -2.17065       -1.53116        1.86074
O         -1.48208       -0.64028        2.35369
C         -3.63130       -1.39143        1.98889
C         -4.34191       -0.78243        0.94812
C         -5.72401       -0.62283        1.05817
C         -6.38963       -1.06358        2.20471
C         -5.67546       -1.65267        3.25084
C         -4.29113       -1.79392        3.15258
O         -3.61739       -2.40218        4.17665
C         -3.21674       -1.43333        5.15477
C         -2.08592       -2.03293        5.96949
H          0.81894        0.02062        1.13770
H          0.94641        1.07279       -0.27511
H          2.10707       -0.24488       -0.05043
H         -0.89429       -0.56322       -0.61586
H          0.39395       -0.75788       -1.79298
H         -0.21209       -2.95473       -1.12457
H          1.36923       -2.62749       -0.43648
H          0.07004       -3.78111        1.23617
H          0.29639       -2.13685        1.79112
H         -3.47585       -3.37709        0.39219
H         -2.02621       -4.09123       -0.28771
H         -3.03842       -4.54584        2.57940
H         -3.20970       -5.67460        1.22567
H         -1.60581       -5.29895        1.87418
H         -3.81933       -0.43503        0.06063
H         -6.28292       -0.15433        0.25161
H         -7.46764       -0.94492        2.28529
H         -6.19649       -1.99881        4.13909
H         -2.87435       -0.49891        4.69335
H         -4.06782       -1.21334        5.80967
H         -1.23502       -2.27560        5.32399
H         -1.75328       -1.33811        6.74566
H         -2.40394       -2.96753        6.44316

--Link1--
%chk=JID_8925.chk
%mem=8GB
%nprocshared=4
# B3LYP/6-311++G(d,p) empiricaldispersion=gd3bj scf=xqc pop=npa geom=check

CID_2286866_JID_8925_Energie_neutraal

0 1

--Link1--
%chk=JID_8925.chk
%mem=8GB
%nprocshared=4
# B3LYP/6-311++G(d,p) empiricaldispersion=gd3bj scf=xqc pop=npa geom=check

CID_2286866_JID_8925_Energie_kation

1 2

--Link1--
%chk=JID_8925.chk
%mem=8GB
%nprocshared=4
# B3LYP/6-311++G(d,p) empiricaldispersion=gd3bj scf=xqc pop=npa geom=check

CID_2286866_JID_8925_Energie_anion

-1 2
