%chk=JID_6443.chk
%mem=8GB
%nprocshared=4
# opt freq B3LYP/6-31G(d) empiricaldispersion=gd3bj scf=xqc

CID_103285308_JID_6443_neutraal

0 1
C          0.95455       -0.08050       -0.03813
C         -0.16086        0.15928       -1.04292
C          0.04112       -0.57062       -2.37522
C          0.16911       -2.10807       -2.29181
C         -1.08950       -2.73143       -1.67830
C          0.41337       -2.69859       -3.69831
O          1.73243       -3.24121       -3.82983
C          2.76186       -2.25700       -4.01846
C          2.74532       -1.61766       -5.36721
C          2.63015       -2.26833       -6.59511
S          2.70039       -1.02647       -7.79435
N          2.83328        0.20472       -6.67689
N          2.84964       -0.23147       -5.43186
N          2.49798       -3.61203       -6.80784
C          1.95668       -4.13245       -8.05391
C          1.97509       -5.65249       -8.02501
H          0.96685       -1.11812        0.30780
H          0.81255        0.55813        0.83966
H          1.93189        0.15273       -0.47228
H         -1.12247       -0.11599       -0.59672
H         -0.21701        1.23531       -1.24896
H         -0.80130       -0.31474       -3.03139
H          0.93472       -0.15708       -2.85745
H          1.01806       -2.36565       -1.64773
H         -1.98439       -2.46427       -2.25049
H         -1.01085       -3.82404       -1.66104
H         -1.23427       -2.40554       -0.64401
H         -0.26154       -3.54319       -3.87655
H          0.21230       -1.97663       -4.49788
H          2.72450       -1.51183       -3.21818
H          3.71692       -2.78267       -3.90416
H          2.24269       -4.16328       -5.98446
H          0.92571       -3.78604       -8.19006
H          2.55254       -3.79176       -8.90803
H          1.36763       -6.03795       -7.19918
H          1.57582       -6.05661       -8.96034
H          2.99497       -6.02979       -7.89506

--Link1--
%chk=JID_6443.chk
%mem=8GB
%nprocshared=4
# B3LYP/6-311++G(d,p) empiricaldispersion=gd3bj scf=xqc pop=npa geom=check

CID_103285308_JID_6443_Energie_neutraal

0 1

--Link1--
%chk=JID_6443.chk
%mem=8GB
%nprocshared=4
# B3LYP/6-311++G(d,p) empiricaldispersion=gd3bj scf=xqc pop=npa geom=check

CID_103285308_JID_6443_Energie_kation

1 2

--Link1--
%chk=JID_6443.chk
%mem=8GB
%nprocshared=4
# B3LYP/6-311++G(d,p) empiricaldispersion=gd3bj scf=xqc pop=npa geom=check

CID_103285308_JID_6443_Energie_anion

-1 2
