%chk=JID_10047.chk
%mem=8GB
%nprocshared=4
# opt freq B3LYP/6-31G(d) empiricaldispersion=gd3bj scf=xqc

CID_66660994_JID_10047_neutraal

0 1
C          0.95558       -0.06832        0.05796
N          0.72449       -0.20242       -1.36066
C          0.30120       -1.34125       -2.01510
O          0.50244       -1.42706       -3.22589
C         -0.36874       -2.38635       -1.24101
N         -0.03545       -3.67988       -1.39095
O         -0.85442       -4.39174       -0.53681
C         -1.69185       -3.53819        0.10762
C         -1.42181       -2.25403       -0.29795
C         -2.66724       -4.14199        1.04576
N         -3.91824       -4.41052        0.35109
C         -4.07931       -5.71034       -0.30624
C         -4.63223       -6.77800        0.63987
C         -4.51029       -8.19313        0.07704
C         -5.74905       -8.92777        0.57750
N         -6.47966       -7.98248        1.42972
C         -6.12346       -6.65432        0.91331
C         -4.85924       -3.41368        0.29731
O         -4.76557       -2.29776        0.78251
O         -5.97725       -3.76111       -0.36090
H          1.42841       -0.97263        0.44966
H          0.00321        0.10726        0.56303
H          1.61106        0.79088        0.22046
H          1.22316        0.42210       -1.98327
H         -1.93275       -1.35512        0.01467
H         -2.28280       -5.07360        1.47485
H         -2.84936       -3.45249        1.87825
H         -4.72759       -5.60478       -1.18360
H         -3.09722       -6.01795       -0.68444
H         -4.09075       -6.74125        1.59573
H         -3.58960       -8.66973        0.43100
H         -4.49053       -8.19445       -1.01886
H         -6.38040       -9.22711       -0.26663
H         -5.48856       -9.83430        1.13312
H         -6.12458       -8.06447        2.38323
H         -6.35051       -5.87462        1.64655
H         -6.69669       -6.44972        0.00150
H         -6.52722       -2.95264       -0.31345

--Link1--
%chk=JID_10047.chk
%mem=8GB
%nprocshared=4
# B3LYP/6-311++G(d,p) empiricaldispersion=gd3bj scf=xqc pop=npa geom=check

CID_66660994_JID_10047_Energie_neutraal

0 1

--Link1--
%chk=JID_10047.chk
%mem=8GB
%nprocshared=4
# B3LYP/6-311++G(d,p) empiricaldispersion=gd3bj scf=xqc pop=npa geom=check

CID_66660994_JID_10047_Energie_kation

1 2

--Link1--
%chk=JID_10047.chk
%mem=8GB
%nprocshared=4
# B3LYP/6-311++G(d,p) empiricaldispersion=gd3bj scf=xqc pop=npa geom=check

CID_66660994_JID_10047_Energie_anion

-1 2
