%chk=JID_6259.chk
%mem=8GB
%nprocshared=4
# opt freq B3LYP/6-31G(d) empiricaldispersion=gd3bj scf=xqc

CID_94425163_JID_6259_neutraal

0 1
C          0.70066       -8.26378        2.41284
C         -0.48452       -7.37430        2.08186
O         -0.17089       -6.51796        0.97369
C          0.52424       -5.39156        1.28088
O          0.84687       -5.03216        2.40738
C          0.89392       -4.62950        0.03648
C          2.42059       -4.44207       -0.03590
C          2.78154       -3.71320       -1.33917
C          3.19936       -5.75793        0.03517
C          4.26049       -5.93143        0.94151
C          4.94567       -7.14397        1.00319
C          4.60566       -8.20054        0.17052
C          3.56967       -8.04441       -0.74474
C          2.87498       -6.83388       -0.81444
O          5.97217       -7.33357        1.88115
O          2.82292       -3.55108        1.01730
H          1.01240       -8.83249        1.53067
H          0.44667       -8.96480        3.21290
H          1.56415       -7.67113        2.73063
H         -1.33426       -7.99354        1.77630
H         -0.80639       -6.79113        2.95222
H          0.50960       -5.15473       -0.84550
H          0.37647       -3.66386        0.08896
H          2.29304       -2.73257       -1.38403
H          3.86041       -3.52368       -1.39712
H          2.48884       -4.28183       -2.22834
H          4.55239       -5.11499        1.59637
H          5.15041       -9.13810        0.23053
H          3.30355       -8.86467       -1.40629
H          2.07544       -6.74419       -1.54685
H          6.10246       -6.51175        2.38268
H          2.43394       -3.88782        1.85067

--Link1--
%chk=JID_6259.chk
%mem=8GB
%nprocshared=4
# B3LYP/6-311++G(d,p) empiricaldispersion=gd3bj scf=xqc pop=npa geom=check

CID_94425163_JID_6259_Energie_neutraal

0 1

--Link1--
%chk=JID_6259.chk
%mem=8GB
%nprocshared=4
# B3LYP/6-311++G(d,p) empiricaldispersion=gd3bj scf=xqc pop=npa geom=check

CID_94425163_JID_6259_Energie_kation

1 2

--Link1--
%chk=JID_6259.chk
%mem=8GB
%nprocshared=4
# B3LYP/6-311++G(d,p) empiricaldispersion=gd3bj scf=xqc pop=npa geom=check

CID_94425163_JID_6259_Energie_anion

-1 2
