%chk=JID_10681.chk
%mem=8GB
%nprocshared=4
# opt freq B3LYP/6-31G(d) empiricaldispersion=gd3bj scf=xqc

CID_82746312_JID_10681_neutraal

0 1
C          1.08592        0.03031        0.04121
C         -0.06426        0.74476        0.72668
C         -0.20457        2.24585        0.41823
C         -0.50748        2.69589       -1.06399
C         -1.05192        4.14998       -1.00670
C         -2.47546        4.24158       -0.44583
C         -3.41294        3.23851       -1.11244
N         -2.88298        1.87768       -1.04090
C         -1.57821        1.78644       -1.71251
C          0.82447        2.65541       -1.87820
O          1.91800        2.61245       -1.30651
N          0.78057        2.64151       -3.26751
C          0.11274        3.68279       -4.05737
C          0.85527        3.74118       -5.40142
C          1.51633        2.37749       -5.46093
C          1.95186        2.19164       -4.00779
C          2.40508        0.74838       -3.80627
C          3.57004        0.43957       -4.75803
C          3.26453        0.78349       -6.22300
C          2.69498        2.19715       -6.40028
H          0.95045       -0.00694       -1.04225
H          1.14618       -1.00372        0.39683
H          2.04166        0.51261        0.26617
H         -1.00098        0.22138        0.50715
H          0.08027        0.64392        1.81033
H         -1.00860        2.59575        1.07555
H          0.69356        2.76109        0.78415
H         -0.37897        4.78782       -0.42016
H         -1.09027        4.59400       -2.00113
H         -2.47138        4.08286        0.63818
H         -2.85951        5.25699       -0.60097
H         -4.38590        3.26842       -0.60996
H         -3.58616        3.52066       -2.15832
H         -3.53703        1.23685       -1.49045
H         -1.72780        2.02553       -2.76924
H         -1.25042        0.74158       -1.70831
H          0.19326        4.65268       -3.56096
H         -0.93704        3.41542       -4.19652
H          1.60673        4.53986       -5.38235
H          0.17937        3.93099       -6.24015
H          0.74174        1.63890       -5.71904
H          2.78008        2.87165       -3.75867
H          1.57486        0.05654       -3.99566
H          2.72629        0.57819       -2.77344
H          3.83729       -0.62030       -4.67882
H          4.44982        1.01212       -4.43809
H          4.17473        0.67542       -6.82364
H          2.54056        0.05649       -6.61225
H          3.47501        2.93803       -6.18701
H          2.38236        2.34571       -7.43971

--Link1--
%chk=JID_10681.chk
%mem=8GB
%nprocshared=4
# B3LYP/6-311++G(d,p) empiricaldispersion=gd3bj scf=xqc pop=npa geom=check

CID_82746312_JID_10681_Energie_neutraal

0 1

--Link1--
%chk=JID_10681.chk
%mem=8GB
%nprocshared=4
# B3LYP/6-311++G(d,p) empiricaldispersion=gd3bj scf=xqc pop=npa geom=check

CID_82746312_JID_10681_Energie_kation

1 2

--Link1--
%chk=JID_10681.chk
%mem=8GB
%nprocshared=4
# B3LYP/6-311++G(d,p) empiricaldispersion=gd3bj scf=xqc pop=npa geom=check

CID_82746312_JID_10681_Energie_anion

-1 2
