%chk=JID_146.chk
%mem=8GB
%nprocshared=4
# opt freq B3LYP/6-31G(d) empiricaldispersion=gd3bj scf=xqc

CID_144512471_JID_146_neutraal

0 1
C          0.99979        0.07166       -0.06974
C          1.08373        1.57722        0.03952
C          0.30349       -3.81649        1.31108
C          0.32007       -3.80168       -0.20926
C          1.27308       -4.80302       -0.77131
C          2.50735       -4.61669       -1.28077
C          3.02864       -5.89086       -1.73019
C          2.12380       -6.85262       -1.50409
C          0.90304       -6.26168       -0.86558
C          3.31178       -3.37239       -1.40443
H          1.10335       -0.24386       -1.11220
H          0.03682       -0.28756        0.30533
H          1.79477       -0.40157        0.51429
H          2.04610        1.93685       -0.33664
H          0.28764        2.04971       -0.54359
H          0.98123        1.89332        1.08190
H         -0.01014       -4.79138        1.69851
H         -0.39667       -3.06379        1.68767
H          1.29417       -3.58897        1.71928
H         -0.68744       -4.00389       -0.59133
H          0.57568       -2.79520       -0.55425
H          4.00110       -6.02652       -2.17942
H          2.24500       -7.89832       -1.74154
H          0.73034       -6.69784        0.12272
H          0.02185       -6.40933       -1.49739
H          4.27469       -3.48655       -0.89526
H          3.50413       -3.14264       -2.45742
H          2.80804       -2.50952       -0.96023

--Link1--
%chk=JID_146.chk
%mem=8GB
%nprocshared=4
# B3LYP/6-311++G(d,p) empiricaldispersion=gd3bj scf=xqc pop=npa geom=check

CID_144512471_JID_146_Energie_neutraal

0 1

--Link1--
%chk=JID_146.chk
%mem=8GB
%nprocshared=4
# B3LYP/6-311++G(d,p) empiricaldispersion=gd3bj scf=xqc pop=npa geom=check

CID_144512471_JID_146_Energie_kation

1 2

--Link1--
%chk=JID_146.chk
%mem=8GB
%nprocshared=4
# B3LYP/6-311++G(d,p) empiricaldispersion=gd3bj scf=xqc pop=npa geom=check

CID_144512471_JID_146_Energie_anion

-1 2
