%chk=JID_9059.chk
%mem=8GB
%nprocshared=4
# opt freq B3LYP/6-31G(d) empiricaldispersion=gd3bj scf=xqc

CID_83244346_JID_9059_neutraal

0 1
C          1.02455        0.08154       -0.05243
C          0.49757        1.44425       -0.50279
C          1.00127        1.74938       -1.91705
C         -1.04210        1.52241       -0.47413
C         -1.71335        1.25557        0.89350
C         -1.22060        2.20781        1.98268
N         -3.17475        1.25862        0.74217
C         -3.97318        2.45875        0.64926
N         -5.21457        2.07835       -0.04004
C         -5.20482        0.60322       -0.11504
C         -3.84775        0.15234        0.27894
O         -3.42804       -0.98456        0.13834
C         -6.02251       -0.10840       -1.15454
C         -6.43024       -0.16577        0.29140
C         -4.34925        2.98113        2.00921
C         -4.26902        4.31478        2.37768
S         -4.75621        4.59917        3.99145
C         -5.10450        2.94629        4.23474
C         -4.84924        2.19555        3.10942
H          0.58802       -0.72861       -0.64627
H          0.79710       -0.10620        1.00109
H          2.11340        0.03087       -0.16119
H          0.91087        2.21223        0.16132
H          0.63702        1.00922       -2.63776
H          0.66379        2.73808       -2.24566
H          2.09598        1.74370       -1.95001
H         -1.34552        2.51623       -0.82955
H         -1.44381        0.81108       -1.20892
H         -1.45013        0.23756        1.20493
H         -1.37291        3.25499        1.70256
H         -1.74360        2.02496        2.92689
H         -0.15337        2.06736        2.17930
H         -3.43534        3.21250        0.06334
H         -5.15377        2.45096       -0.98452
H         -6.63885        0.47582       -1.82636
H         -5.61289       -1.00998       -1.59708
H         -6.29282       -1.10364        0.81774
H         -7.30572        0.39343        0.59871
H         -3.94106        5.14797        1.77128
H         -5.48113        2.60185        5.18803
H         -5.01030        1.12474        3.06674

--Link1--
%chk=JID_9059.chk
%mem=8GB
%nprocshared=4
# B3LYP/6-311++G(d,p) empiricaldispersion=gd3bj scf=xqc pop=npa geom=check

CID_83244346_JID_9059_Energie_neutraal

0 1

--Link1--
%chk=JID_9059.chk
%mem=8GB
%nprocshared=4
# B3LYP/6-311++G(d,p) empiricaldispersion=gd3bj scf=xqc pop=npa geom=check

CID_83244346_JID_9059_Energie_kation

1 2

--Link1--
%chk=JID_9059.chk
%mem=8GB
%nprocshared=4
# B3LYP/6-311++G(d,p) empiricaldispersion=gd3bj scf=xqc pop=npa geom=check

CID_83244346_JID_9059_Energie_anion

-1 2
