%chk=JID_6430.chk
%mem=8GB
%nprocshared=4
# opt freq B3LYP/6-31G(d) empiricaldispersion=gd3bj scf=xqc

CID_77610467_JID_6430_neutraal

0 1
C          1.01480       -0.08656        0.04783
C          0.37737       -0.81055       -1.14970
C          0.72707       -2.30612       -1.07379
C         -1.15772       -0.53177       -1.30574
C         -1.93882       -1.25634       -0.16148
C         -3.08735       -0.32299        0.16752
C         -2.43261        1.03534        0.03290
N         -1.54286        0.90519       -1.11759
C         -1.42949        2.00621       -1.92328
O         -1.97408        3.08268       -1.66535
N         -0.81574        1.93180       -3.12777
C          0.61907        1.72442       -3.28427
C          1.27631        2.72129       -4.25377
O          1.81075        3.87884       -3.60978
C          0.82802        4.76388       -3.09232
C         -1.69737       -1.05878       -2.65244
H          0.62375       -0.44440        1.00443
H          0.85606        0.99456       -0.00220
H          2.09836       -0.25065        0.05719
H          0.89206       -0.44884       -2.03828
H          0.31582       -2.78167       -0.17837
H          0.36208       -2.84854       -1.95050
H          1.81442       -2.44092       -1.04391
H         -2.29013       -2.25511       -0.44172
H         -1.33045       -1.37267        0.74171
H         -3.50247       -0.49430        1.16452
H         -3.89239       -0.43800       -0.56757
H         -1.81034        1.26365        0.90582
H         -3.17844        1.82700       -0.08389
H         -1.12269        2.75508       -3.63032
H          1.10731        1.76962       -2.30714
H          0.72200        0.73030       -3.72612
H          2.13693        2.22443       -4.71558
H          0.60334        3.01893       -5.06665
H          0.05824        4.97928       -3.83923
H          0.38323        4.34991       -2.18529
H          1.32426        5.70113       -2.82527
H         -1.12780       -0.67216       -3.50130
H         -1.65334       -2.15141       -2.70803
H         -2.74311       -0.76669       -2.80311

--Link1--
%chk=JID_6430.chk
%mem=8GB
%nprocshared=4
# B3LYP/6-311++G(d,p) empiricaldispersion=gd3bj scf=xqc pop=npa geom=check

CID_77610467_JID_6430_Energie_neutraal

0 1

--Link1--
%chk=JID_6430.chk
%mem=8GB
%nprocshared=4
# B3LYP/6-311++G(d,p) empiricaldispersion=gd3bj scf=xqc pop=npa geom=check

CID_77610467_JID_6430_Energie_kation

1 2

--Link1--
%chk=JID_6430.chk
%mem=8GB
%nprocshared=4
# B3LYP/6-311++G(d,p) empiricaldispersion=gd3bj scf=xqc pop=npa geom=check

CID_77610467_JID_6430_Energie_anion

-1 2
