%chk=JID_8764.chk
%mem=8GB
%nprocshared=4
# opt freq B3LYP/6-31G(d) empiricaldispersion=gd3bj scf=xqc

CID_24956774_JID_8764_neutraal

0 1
C          1.07242        0.00727        0.06857
C         -0.06899        1.02301        0.18611
C         -1.38166        0.52893       -0.42434
C         -1.80195       -0.82018        0.09725
C         -2.06841       -0.98409        1.46433
C         -2.05780        0.21157        2.37725
N         -0.72770        0.76763        2.61693
C         -0.11574        1.54009        1.62640
O          0.53750        2.55160        1.90578
C         -0.37718        1.10263        4.01242
C         -1.26861        2.20362        4.59302
C         -0.35494       -0.13310        4.91623
C         -2.36451       -2.26455        1.96540
C         -2.41646       -3.36764        1.11204
C         -2.18773       -3.18656       -0.25162
C         -1.87726       -1.92488       -0.75869
O         -2.69007       -4.65643        1.47867
C         -2.73844       -4.92931        2.87348
H          1.17537       -0.34936       -0.96155
H          0.92672       -0.85799        0.72367
H          2.02408        0.46718        0.35872
H          0.21586        1.89943       -0.41500
H         -1.26160        0.47431       -1.51438
H         -2.18701        1.25342       -0.25281
H         -2.52418       -0.06598        3.32754
H         -2.69581        1.00419        1.96617
H          0.65144        1.48688        4.00882
H         -2.30991        1.87703        4.68168
H         -0.92302        2.49303        5.59112
H         -1.25563        3.09697        3.96001
H          0.26627       -0.92125        4.47707
H          0.06250        0.11852        5.89723
H         -1.35345       -0.54809        5.08247
H         -2.55805       -2.37429        3.02745
H         -2.23462       -4.03999       -0.92384
H         -1.67610       -1.81808       -1.82229
H         -1.80091       -4.64954        3.36656
H         -3.59498       -4.43228        3.34087
H         -2.87066       -6.00847        2.99853

--Link1--
%chk=JID_8764.chk
%mem=8GB
%nprocshared=4
# B3LYP/6-311++G(d,p) empiricaldispersion=gd3bj scf=xqc pop=npa geom=check

CID_24956774_JID_8764_Energie_neutraal

0 1

--Link1--
%chk=JID_8764.chk
%mem=8GB
%nprocshared=4
# B3LYP/6-311++G(d,p) empiricaldispersion=gd3bj scf=xqc pop=npa geom=check

CID_24956774_JID_8764_Energie_kation

1 2

--Link1--
%chk=JID_8764.chk
%mem=8GB
%nprocshared=4
# B3LYP/6-311++G(d,p) empiricaldispersion=gd3bj scf=xqc pop=npa geom=check

CID_24956774_JID_8764_Energie_anion

-1 2
