%chk=JID_5907.chk
%mem=8GB
%nprocshared=4
# opt freq B3LYP/6-31G(d) empiricaldispersion=gd3bj scf=xqc

CID_114802325_JID_5907_neutraal

0 1
C          2.50100       -0.11500        0.00200
C          1.01772        0.09104       -0.05688
C          0.39430        1.34115       -0.19415
C         -1.00693        1.37283       -0.19831
C         -1.72557        0.19331       -0.10893
N         -1.15437       -1.01963       -0.00985
C          0.19566       -1.03840        0.01104
N          1.04167        2.56560       -0.28975
C          2.07523        2.80404       -1.29804
C          3.18198        3.54707       -0.54995
C          2.42779        4.26412        0.56978
C          1.39285        3.20895        0.98104
C          3.30456        4.71219        1.74148
C          4.40523        5.71078        1.37555
N          3.86481        6.96312        0.86394
H          2.74692       -1.04024        0.53552
H          2.91703       -0.18677       -1.00702
H          2.99717        0.69162        0.54716
H         -1.53068        2.31909       -0.28623
H         -2.81105        0.19936       -0.11904
H          0.62234       -2.03504        0.09783
H          1.65321        3.45059       -2.07629
H          2.45520        1.90578       -1.79140
H          3.90349        2.83252       -0.13639
H          3.72418        4.23457       -1.20598
H          1.89451        5.12567        0.14640
H          1.82473        2.48901        1.68736
H          0.51701        3.67426        1.44638
H          2.66333        5.14967        2.51797
H          3.78044        3.83494        2.19853
H          4.99292        5.92848        2.27426
H          5.09201        5.27743        0.64099
H          4.62953        7.61200        0.67938
H          3.40769        6.80792       -0.03328

--Link1--
%chk=JID_5907.chk
%mem=8GB
%nprocshared=4
# B3LYP/6-311++G(d,p) empiricaldispersion=gd3bj scf=xqc pop=npa geom=check

CID_114802325_JID_5907_Energie_neutraal

0 1

--Link1--
%chk=JID_5907.chk
%mem=8GB
%nprocshared=4
# B3LYP/6-311++G(d,p) empiricaldispersion=gd3bj scf=xqc pop=npa geom=check

CID_114802325_JID_5907_Energie_kation

1 2

--Link1--
%chk=JID_5907.chk
%mem=8GB
%nprocshared=4
# B3LYP/6-311++G(d,p) empiricaldispersion=gd3bj scf=xqc pop=npa geom=check

CID_114802325_JID_5907_Energie_anion

-1 2
