%chk=JID_5192.chk
%mem=8GB
%nprocshared=4
# opt freq B3LYP/6-31G(d) empiricaldispersion=gd3bj scf=xqc

CID_63974543_JID_5192_neutraal

0 1
C          2.44200       -0.09800       -0.00700
C          0.94674       -0.02608        0.04854
N          0.38873        1.20354       -0.05474
C         -0.96348        1.31190        0.08490
C         -1.77319        0.19792        0.30228
C         -1.18354       -1.05886        0.38687
C          0.19626       -1.17467        0.26913
C         -1.58666        2.70476       -0.00337
C         -1.32102        3.56473        1.21750
N         -2.28240        4.01680        2.01244
C         -1.66868        4.73776        2.99733
C         -0.31293        4.75351        2.80577
N         -0.09576        4.01776        1.66795
C          1.21687        3.80742        1.10841
N         -1.25152        3.39110       -1.26531
H          2.85346        0.79438       -0.48978
H          2.84948       -0.16392        1.00633
H          2.76829       -0.97017       -0.58233
H         -2.84915        0.30200        0.40420
H         -1.79615       -1.94045        0.55312
H          0.67322       -2.14569        0.35294
H         -2.67634        2.57097       -0.04236
H         -2.23499        5.20791        3.79068
H          0.49166        5.21134        3.36438
H          1.86322        4.64138        1.39891
H          1.62302        2.88009        1.51724
H          1.16905        3.78186        0.02132
H         -1.46917        4.37856       -1.15362
H         -0.24933        3.30055       -1.40965

--Link1--
%chk=JID_5192.chk
%mem=8GB
%nprocshared=4
# B3LYP/6-311++G(d,p) empiricaldispersion=gd3bj scf=xqc pop=npa geom=check

CID_63974543_JID_5192_Energie_neutraal

0 1

--Link1--
%chk=JID_5192.chk
%mem=8GB
%nprocshared=4
# B3LYP/6-311++G(d,p) empiricaldispersion=gd3bj scf=xqc pop=npa geom=check

CID_63974543_JID_5192_Energie_kation

1 2

--Link1--
%chk=JID_5192.chk
%mem=8GB
%nprocshared=4
# B3LYP/6-311++G(d,p) empiricaldispersion=gd3bj scf=xqc pop=npa geom=check

CID_63974543_JID_5192_Energie_anion

-1 2
