%chk=JID_7926.chk
%mem=8GB
%nprocshared=4
# opt freq B3LYP/6-31G(d) empiricaldispersion=gd3bj scf=xqc

CID_81929726_JID_7926_neutraal

0 1
C          1.02124        0.07515       -0.06246
C          0.41915        1.37937        0.44695
C          1.09255        1.82352        1.74169
C          0.68390        3.28634        1.83497
C          0.64877        3.74354        0.37367
N          0.66579        2.52517       -0.43759
C         -0.11704        2.54302       -1.68968
C         -1.63571        2.65734       -1.55570
C          0.54579        3.44437       -2.76285
O          1.43615        2.98947       -3.49157
N          0.21552        4.74293       -2.98493
C         -0.62230        5.69391       -2.27624
C          0.19773        6.79781       -1.59728
O          0.63985        7.77219       -2.54631
C          2.00266        7.61925       -2.91945
C          1.59789        4.10169        2.74520
N          1.16021        5.49215        2.84261
H          0.50346       -0.28323       -0.95739
H          0.94038       -0.70711        0.70009
H          2.08240        0.19130       -0.30971
H         -0.65411        1.24564        0.63315
H          0.74533        1.24724        2.60574
H          2.18406        1.72292        1.68039
H         -0.34134        3.32283        2.23254
H          1.52587        4.34670        0.11771
H         -0.24204        4.35818        0.23076
H          0.02126        1.55316       -2.15002
H         -1.94805        3.37304       -0.79153
H         -2.09702        2.95050       -2.50454
H         -2.06571        1.69201       -1.26472
H          0.73360        5.11668       -3.77080
H         -1.28935        6.13166       -3.02618
H         -1.22808        5.18629       -1.53299
H         -0.45780        7.33007       -0.89966
H          1.03531        6.39383       -1.01833
H          2.65254        7.65147       -2.03982
H          2.15684        6.68760       -3.46770
H          2.27008        8.45158       -3.57641
H          1.58874        3.66298        3.74953
H          2.63392        4.07234        2.38913
H          1.70587        5.96001        3.56737
H          1.38194        5.98370        1.97807

--Link1--
%chk=JID_7926.chk
%mem=8GB
%nprocshared=4
# B3LYP/6-311++G(d,p) empiricaldispersion=gd3bj scf=xqc pop=npa geom=check

CID_81929726_JID_7926_Energie_neutraal

0 1

--Link1--
%chk=JID_7926.chk
%mem=8GB
%nprocshared=4
# B3LYP/6-311++G(d,p) empiricaldispersion=gd3bj scf=xqc pop=npa geom=check

CID_81929726_JID_7926_Energie_kation

1 2

--Link1--
%chk=JID_7926.chk
%mem=8GB
%nprocshared=4
# B3LYP/6-311++G(d,p) empiricaldispersion=gd3bj scf=xqc pop=npa geom=check

CID_81929726_JID_7926_Energie_anion

-1 2
