%chk=JID_9569.chk
%mem=8GB
%nprocshared=4
# opt freq B3LYP/6-31G(d) empiricaldispersion=gd3bj scf=xqc

CID_114382875_JID_9569_neutraal

0 1
C          0.92751       -0.04729       -0.05009
C          0.58335       -0.07733        1.44686
C          1.30584        1.08420        2.13766
C         -0.93657        0.01378        1.61133
O          1.07495       -1.36225        1.89932
C          0.99627       -1.72897        3.19816
O          0.52692       -1.06202        4.10791
N          1.52232       -2.96679        3.41234
C          1.90450       -3.91103        2.37912
C          3.03093       -4.83770        2.84417
N          2.62622       -5.58709        4.04446
C          3.57626       -6.56023        4.39088
C          4.86897       -6.22482        4.72527
C          5.72745       -7.27468        4.93892
N          5.36018       -8.56467        4.89424
C          4.06774       -8.77238        4.61812
N          3.15029       -7.82989        4.35118
O          7.03834       -6.94184        5.21924
C          7.94219       -8.00767        4.94624
H          0.59500        0.88180       -0.52487
H          0.46142       -0.88967       -0.57465
H          2.00839       -0.14733       -0.20397
H          1.05935        2.04203        1.66667
H          1.03605        1.16360        3.19498
H          2.39205        0.94565        2.09874
H         -1.42850       -0.85989        1.16891
H         -1.23010        0.03669        2.66538
H         -1.33625        0.91613        1.13646
H          1.42531       -3.31585        4.35884
H          1.00757       -4.48899        2.13029
H          2.22299       -3.37968        1.47675
H          3.27759       -5.52773        2.02731
H          3.91612       -4.22698        3.05951
H          1.77990       -6.13150        3.86739
H          5.20460       -5.20060        4.79349
H          3.72939       -9.80265        4.59749
H          7.79064       -8.84775        5.63174
H          7.86245       -8.33234        3.90232
H          8.95758       -7.62944        5.09888

--Link1--
%chk=JID_9569.chk
%mem=8GB
%nprocshared=4
# B3LYP/6-311++G(d,p) empiricaldispersion=gd3bj scf=xqc pop=npa geom=check

CID_114382875_JID_9569_Energie_neutraal

0 1

--Link1--
%chk=JID_9569.chk
%mem=8GB
%nprocshared=4
# B3LYP/6-311++G(d,p) empiricaldispersion=gd3bj scf=xqc pop=npa geom=check

CID_114382875_JID_9569_Energie_kation

1 2

--Link1--
%chk=JID_9569.chk
%mem=8GB
%nprocshared=4
# B3LYP/6-311++G(d,p) empiricaldispersion=gd3bj scf=xqc pop=npa geom=check

CID_114382875_JID_9569_Energie_anion

-1 2
