%chk=JID_8443.chk
%mem=8GB
%nprocshared=4
# opt freq B3LYP/6-31G(d) empiricaldispersion=gd3bj scf=xqc

CID_121002499_JID_8443_neutraal

0 1
C          1.07487       -0.06519       -0.01201
C          0.57024        1.34028        0.19153
O         -0.45256        1.54177        0.85134
N          1.30475        2.37067       -0.39907
C          0.75415        3.69766       -0.16926
C          1.44129        4.83354       -0.91229
C          1.66228        4.51329       -2.38398
C          2.78383        3.54916       -2.64608
C          3.29530        2.59769       -1.83641
C          2.67920        2.25798       -0.48926
O          3.41248        2.00526        0.46566
N          4.47797        1.90657       -2.15986
C          5.53260        2.50770       -2.83949
O          6.20260        1.93684       -3.70193
C          5.83954        3.94806       -2.48802
C          4.54365        0.54256       -1.86935
O          3.54212       -0.17469       -1.79390
C          5.91656       -0.07056       -1.71367
H          1.16095       -0.27218       -1.08078
H          0.34859       -0.77022        0.40494
H          2.02653       -0.21887        0.50007
H         -0.30528        3.67595       -0.45692
H          0.78764        3.90212        0.90894
H          2.39745        5.07662       -0.43076
H          0.81856        5.73226       -0.82476
H          1.92103        5.45343       -2.88808
H          0.74278        4.14882       -2.85605
H          3.22918        3.68648       -3.63186
H          5.43822        4.61358       -3.25586
H          5.44337        4.22302       -1.50702
H          6.92641        4.07044       -2.44433
H          6.25989       -0.46193       -2.67431
H          6.63546        0.65154       -1.31770
H          5.85396       -0.89432       -0.99571

--Link1--
%chk=JID_8443.chk
%mem=8GB
%nprocshared=4
# B3LYP/6-311++G(d,p) empiricaldispersion=gd3bj scf=xqc pop=npa geom=check

CID_121002499_JID_8443_Energie_neutraal

0 1

--Link1--
%chk=JID_8443.chk
%mem=8GB
%nprocshared=4
# B3LYP/6-311++G(d,p) empiricaldispersion=gd3bj scf=xqc pop=npa geom=check

CID_121002499_JID_8443_Energie_kation

1 2

--Link1--
%chk=JID_8443.chk
%mem=8GB
%nprocshared=4
# B3LYP/6-311++G(d,p) empiricaldispersion=gd3bj scf=xqc pop=npa geom=check

CID_121002499_JID_8443_Energie_anion

-1 2
