%chk=JID_4107.chk
%mem=8GB
%nprocshared=4
# opt freq B3LYP/6-31G(d) empiricaldispersion=gd3bj scf=xqc

CID_84773598_JID_4107_neutraal

0 1
C          1.07713       -0.06342       -0.00535
C          0.14660       -0.01825       -1.20853
C          0.63042       -0.90554       -2.33315
C          1.38196       -0.33555       -3.37573
C          1.86630       -1.11167       -4.44072
C          1.58102       -2.47828       -4.44084
C          0.84182       -3.06630       -3.40935
C          0.36738       -2.28671       -2.34927
O         -0.36039       -2.76731       -1.29149
C         -0.59913       -4.16672       -1.23550
O          2.03737       -3.25125       -5.47375
C          2.67016       -0.45122       -5.53681
N          1.84386        0.48739       -6.30404
C          2.60953        1.08338       -7.38873
H          1.14889       -1.07430        0.40930
H          0.70729        0.59958        0.78319
H          2.08804        0.26077       -0.27496
H         -0.86844       -0.30830       -0.91195
H          0.06379        1.01667       -1.56338
H          1.59052        0.73389       -3.36881
H          0.64361       -4.13019       -3.44684
H         -1.21091       -4.49610       -2.08162
H          0.34034       -4.72678       -1.18289
H         -1.16061       -4.37345       -0.31931
H          1.74950       -4.16792       -5.33432
H          3.51022        0.07914       -5.07014
H          3.10620       -1.20254       -6.20505
H          1.05908       -0.03542       -6.69282
H          2.97200        0.32533       -8.09081
H          1.97288        1.77840       -7.94492
H          3.46207        1.65305       -7.00504

--Link1--
%chk=JID_4107.chk
%mem=8GB
%nprocshared=4
# B3LYP/6-311++G(d,p) empiricaldispersion=gd3bj scf=xqc pop=npa geom=check

CID_84773598_JID_4107_Energie_neutraal

0 1

--Link1--
%chk=JID_4107.chk
%mem=8GB
%nprocshared=4
# B3LYP/6-311++G(d,p) empiricaldispersion=gd3bj scf=xqc pop=npa geom=check

CID_84773598_JID_4107_Energie_kation

1 2

--Link1--
%chk=JID_4107.chk
%mem=8GB
%nprocshared=4
# B3LYP/6-311++G(d,p) empiricaldispersion=gd3bj scf=xqc pop=npa geom=check

CID_84773598_JID_4107_Energie_anion

-1 2
