%chk=JID_1855.chk
%mem=8GB
%nprocshared=4
# opt freq B3LYP/6-31G(d) empiricaldispersion=gd3bj scf=xqc

CID_145006975_JID_1855_neutraal

0 1
C          1.07263        0.04914        0.04806
C          1.16725       -1.39862       -0.40691
C          1.47392       -2.37321        0.73040
C          0.36717       -2.45916        1.76987
C         -1.03473        3.18620       -1.44949
C         -1.39227        2.79057       -2.87364
C         -0.52305        1.67194       -3.36838
C         -0.98100        0.46547       -3.72431
C         -3.82981        0.61686       -0.21120
C         -4.29090       -0.81237       -0.17774
C         -2.82584       -0.49365       -0.09138
H          0.21148        0.21022        0.70258
H          0.96060        0.70798       -0.81771
H          1.97685        0.35175        0.58560
H          0.23489       -1.68711       -0.90555
H          1.96400       -1.47710       -1.15618
H          1.62898       -3.37068        0.30222
H          2.41253       -2.08984        1.22087
H         -0.58779       -2.72454        1.30570
H          0.60802       -3.22743        2.51170
H          0.24247       -1.51198        2.30277
H         -1.66992        4.01308       -1.11617
H          0.00871        3.51141       -1.37753
H         -1.17893        2.34961       -0.75795
H         -2.45159        2.51221       -2.91623
H         -1.26269        3.65492       -3.53486
H          0.54386        1.87378       -3.44311
H         -0.30134       -0.30411       -4.07741
H         -2.03620        0.21618       -3.66959
H         -4.01180        1.23251        0.66199
H         -3.88959        1.14847       -1.15358
H         -4.78792       -1.16586        0.71824
H         -4.66311       -1.24867       -1.09738
H         -2.20445       -0.71139       -0.95203
H         -2.33055       -0.63045        0.86277

--Link1--
%chk=JID_1855.chk
%mem=8GB
%nprocshared=4
# B3LYP/6-311++G(d,p) empiricaldispersion=gd3bj scf=xqc pop=npa geom=check

CID_145006975_JID_1855_Energie_neutraal

0 1

--Link1--
%chk=JID_1855.chk
%mem=8GB
%nprocshared=4
# B3LYP/6-311++G(d,p) empiricaldispersion=gd3bj scf=xqc pop=npa geom=check

CID_145006975_JID_1855_Energie_kation

1 2

--Link1--
%chk=JID_1855.chk
%mem=8GB
%nprocshared=4
# B3LYP/6-311++G(d,p) empiricaldispersion=gd3bj scf=xqc pop=npa geom=check

CID_145006975_JID_1855_Energie_anion

-1 2
