%chk=JID_8449.chk
%mem=8GB
%nprocshared=4
# opt freq B3LYP/6-31G(d) empiricaldispersion=gd3bj scf=xqc

CID_55037254_JID_8449_neutraal

0 1
C         -1.52500       -2.50000        0.00700
C         -0.78973       -1.19458        0.03380
C         -0.88778       -0.34430        1.14336
C         -0.16185        0.85695        1.20749
C          0.61602        1.22852        0.09965
C          0.75535        0.36716       -1.00765
C          0.07623       -0.85294       -1.01066
N          1.72030        0.62302       -2.00585
O          1.32048        2.41158        0.06077
C          0.47679        3.56564       -0.09162
C          0.08692        3.85998       -1.55716
N         -0.92963        2.96073       -2.13168
C         -2.25222        3.10026       -1.48919
C         -3.28959        2.16839       -2.13723
O         -3.40899        2.42280       -3.54339
C         -2.13780        2.23486       -4.17924
C         -1.07585        3.17408       -3.58465
C         -0.25302        1.68553        2.45532
H         -1.74534       -2.80440       -1.02172
H         -0.92359       -3.27920        0.48539
H         -2.48244       -2.41802        0.53239
H         -1.51686       -0.63533        1.98320
H          0.22380       -1.54481       -1.83660
H          1.43971        0.27661       -2.91612
H          1.94970        1.61411       -2.01571
H         -0.39377        3.54563        0.56954
H          1.08365        4.41021        0.25762
H         -0.25990        4.89900       -1.62647
H          1.00195        3.78197       -2.15774
H         -2.59938        4.13792       -1.57765
H         -2.19985        2.85051       -0.42536
H         -3.03098        1.11404       -1.97902
H         -4.27242        2.34000       -1.68625
H         -2.26681        2.44877       -5.24499
H         -1.83743        1.18383       -4.08493
H         -1.36555        4.21436       -3.78190
H         -0.12160        2.98440       -4.08948
H          0.63041        2.31842        2.58481
H         -1.14611        2.31730        2.42545
H         -0.31106        1.04276        3.34081

--Link1--
%chk=JID_8449.chk
%mem=8GB
%nprocshared=4
# B3LYP/6-311++G(d,p) empiricaldispersion=gd3bj scf=xqc pop=npa geom=check

CID_55037254_JID_8449_Energie_neutraal

0 1

--Link1--
%chk=JID_8449.chk
%mem=8GB
%nprocshared=4
# B3LYP/6-311++G(d,p) empiricaldispersion=gd3bj scf=xqc pop=npa geom=check

CID_55037254_JID_8449_Energie_kation

1 2

--Link1--
%chk=JID_8449.chk
%mem=8GB
%nprocshared=4
# B3LYP/6-311++G(d,p) empiricaldispersion=gd3bj scf=xqc pop=npa geom=check

CID_55037254_JID_8449_Energie_anion

-1 2
