%chk=JID_7670.chk
%mem=8GB
%nprocshared=4
# opt freq B3LYP/6-31G(d) empiricaldispersion=gd3bj scf=xqc

CID_113508301_JID_7670_neutraal

0 1
C          1.00358        0.08831       -0.04679
C          0.52310       -0.99755       -1.04088
C          0.99457       -2.34721       -0.47754
C         -1.01932       -0.99092       -1.06072
C          1.03801       -0.68018       -2.44670
C          1.51882       -1.49854       -3.46028
S          1.88606       -0.53987       -4.84196
C          1.35693        0.90031       -4.04466
N          0.96385        0.66328       -2.81398
N          1.35305        2.14659       -4.63070
C          1.83364        2.28318       -6.00448
C          1.00417        3.37819       -3.95172
C         -0.33575        3.39032       -3.18359
C          0.38143        4.22411       -2.09790
C          1.71889        3.64302       -2.60857
C          1.75028       -2.97115       -3.55085
N          0.52244       -3.67036       -3.91076
H          0.66276       -0.12484        0.97308
H          0.62213        1.08150       -0.31130
H          2.09820        0.14922       -0.02978
H          0.68128       -2.47041        0.56647
H          0.56589       -3.19123       -1.02554
H          2.08660       -2.43217       -0.50136
H         -1.41120       -0.02165       -1.39151
H         -1.40984       -1.75143       -1.74691
H         -1.43192       -1.19332       -0.06582
H          1.69814        3.29980       -6.39022
H          2.90444        2.05885       -6.06536
H          1.28267        1.62531       -6.68615
H          1.07881        4.24997       -4.61717
H         -1.15673        3.90588       -3.69131
H         -0.71559        2.43388       -2.81444
H          0.12279        3.97964       -1.06460
H          0.28921        5.30655       -2.24368
H          2.05766        2.77122       -2.04153
H          2.54474        4.35929       -2.65560
H          2.50999       -3.19781       -4.30870
H          2.15114       -3.36657       -2.61484
H          0.68614       -4.67407       -3.87728
H         -0.20002       -3.46837       -3.22309

--Link1--
%chk=JID_7670.chk
%mem=8GB
%nprocshared=4
# B3LYP/6-311++G(d,p) empiricaldispersion=gd3bj scf=xqc pop=npa geom=check

CID_113508301_JID_7670_Energie_neutraal

0 1

--Link1--
%chk=JID_7670.chk
%mem=8GB
%nprocshared=4
# B3LYP/6-311++G(d,p) empiricaldispersion=gd3bj scf=xqc pop=npa geom=check

CID_113508301_JID_7670_Energie_kation

1 2

--Link1--
%chk=JID_7670.chk
%mem=8GB
%nprocshared=4
# B3LYP/6-311++G(d,p) empiricaldispersion=gd3bj scf=xqc pop=npa geom=check

CID_113508301_JID_7670_Energie_anion

-1 2
