%chk=JID_6686.chk
%mem=8GB
%nprocshared=4
# opt freq B3LYP/6-31G(d) empiricaldispersion=gd3bj scf=xqc

CID_89813911_JID_6686_neutraal

0 1
C          2.49200        0.00400       -0.01400
C          1.00076       -0.01470        0.18971
C          0.35635       -1.25981        0.29736
C         -1.01536       -1.34234        0.53110
C         -1.76235       -0.18041        0.67656
C         -1.13802        1.06278        0.57902
C          0.24202        1.16862        0.32014
C          0.85820        2.55371        0.20958
C          0.77455        3.25326       -1.17622
C         -0.66541        3.39104       -1.68483
C          1.38759        4.68264       -1.07224
N          2.82105        4.69830       -0.82634
C          3.79116        4.55559       -1.75985
O          4.98795        4.57526       -1.53815
O          3.31820        4.37747       -3.00444
O          1.48716        2.48146       -2.15283
H          2.98938        0.37584        0.88736
H          2.88151       -0.99915       -0.21885
H          2.76487        0.63035       -0.86703
H          0.92669       -2.18111        0.19895
H         -1.49634       -2.31367        0.60473
H         -2.83065       -0.23989        0.86484
H         -1.74316        1.95811        0.70158
H          0.37978        3.19215        0.96568
H          1.90771        2.49044        0.52074
H         -1.30061        3.91494       -0.96342
H         -0.69019        3.94846       -2.62893
H         -1.10788        2.41551       -1.91125
H          1.21446        5.23239       -2.00533
H          0.91312        5.24929       -0.26317
H          3.16293        4.77690        0.12230
H          4.14192        4.30747       -3.53308
H          1.94209        3.10567       -2.75205

--Link1--
%chk=JID_6686.chk
%mem=8GB
%nprocshared=4
# B3LYP/6-311++G(d,p) empiricaldispersion=gd3bj scf=xqc pop=npa geom=check

CID_89813911_JID_6686_Energie_neutraal

0 1

--Link1--
%chk=JID_6686.chk
%mem=8GB
%nprocshared=4
# B3LYP/6-311++G(d,p) empiricaldispersion=gd3bj scf=xqc pop=npa geom=check

CID_89813911_JID_6686_Energie_kation

1 2

--Link1--
%chk=JID_6686.chk
%mem=8GB
%nprocshared=4
# B3LYP/6-311++G(d,p) empiricaldispersion=gd3bj scf=xqc pop=npa geom=check

CID_89813911_JID_6686_Energie_anion

-1 2
