%chk=JID_3126.chk
%mem=8GB
%nprocshared=4
# opt freq B3LYP/6-31G(d) empiricaldispersion=gd3bj scf=xqc

CID_132121714_JID_3126_neutraal

0 1
C          1.05292       -0.08076        0.02602
C          0.38147        0.42433        1.30449
C          0.89548        1.82916        1.64784
C         -1.13201        0.37188        1.15965
C         -1.86721       -0.78077        1.42986
C         -3.20889       -0.67587        1.07996
N         -3.74517        0.49079        0.64476
N         -2.99014        1.54067        0.48631
N         -1.70801        1.50667        0.69801
C         -4.22340       -1.80255        1.14802
C         -3.87488       -3.00417        0.26737
C         -4.55379       -2.21232        2.58450
N         -1.25302       -1.99653        1.77311
H          0.78779        0.54050       -0.83714
H          0.75353       -1.10921       -0.20295
H          2.14330       -0.06773        0.12896
H          0.68752       -0.21313        2.14138
H          0.71018        2.54251        0.83685
H          0.41124        2.21327        2.55256
H          1.97572        1.80881        1.82933
H         -5.16089       -1.40339        0.73279
H         -3.02933       -3.58098        0.65078
H         -4.72825       -3.68885        0.20593
H         -3.62963       -2.68500       -0.75164
H         -4.85496       -1.34192        3.17825
H         -5.38407       -2.92704        2.59655
H         -3.71001       -2.68338        3.09526
H         -1.85938       -2.67341        2.22131
H         -0.37880       -1.91277        2.28067

--Link1--
%chk=JID_3126.chk
%mem=8GB
%nprocshared=4
# B3LYP/6-311++G(d,p) empiricaldispersion=gd3bj scf=xqc pop=npa geom=check

CID_132121714_JID_3126_Energie_neutraal

0 1

--Link1--
%chk=JID_3126.chk
%mem=8GB
%nprocshared=4
# B3LYP/6-311++G(d,p) empiricaldispersion=gd3bj scf=xqc pop=npa geom=check

CID_132121714_JID_3126_Energie_kation

1 2

--Link1--
%chk=JID_3126.chk
%mem=8GB
%nprocshared=4
# B3LYP/6-311++G(d,p) empiricaldispersion=gd3bj scf=xqc pop=npa geom=check

CID_132121714_JID_3126_Energie_anion

-1 2
