%chk=JID_2109.chk
%mem=8GB
%nprocshared=4
# opt freq B3LYP/6-31G(d) empiricaldispersion=gd3bj scf=xqc

CID_118540617_JID_2109_neutraal

0 1
C          0.99308       -0.04859       -0.08713
C          0.34476        1.22885        0.45910
N          1.26987        1.96731        1.33022
C          0.58702        3.07241        2.00453
C          2.46223        2.45665        0.64046
O         -0.13423        2.06179       -0.60259
C         -1.29102        1.52836       -1.26213
C         -1.87499        2.56613       -2.22569
O         -1.16345        2.67006       -3.46100
C          0.17780        3.16104       -3.39573
C          0.29870        4.59601       -2.87054
O          0.22710        4.68780       -1.44872
H          1.69495        0.16862       -0.89919
H          0.23331       -0.71820       -0.50411
H          1.51280       -0.60323        0.70134
H         -0.50673        0.91658        1.07869
H          1.25508        3.54792        2.73166
H          0.23977        3.84285        1.30807
H         -0.27589        2.70661        2.57223
H          3.12073        2.98046        1.34333
H          3.05694        1.63152        0.23621
H          2.22832        3.14640       -0.17626
H         -1.01091        0.62893       -1.81877
H         -2.04761        1.28001       -0.50989
H         -2.88643        2.24481       -2.49739
H         -1.97020        3.55080       -1.75951
H          0.80569        2.46371       -2.83373
H          0.54142        3.14883       -4.42907
H          1.26735        5.01192       -3.16368
H         -0.49340        5.22786       -3.28337
H          0.26017        3.78071       -1.07876

--Link1--
%chk=JID_2109.chk
%mem=8GB
%nprocshared=4
# B3LYP/6-311++G(d,p) empiricaldispersion=gd3bj scf=xqc pop=npa geom=check

CID_118540617_JID_2109_Energie_neutraal

0 1

--Link1--
%chk=JID_2109.chk
%mem=8GB
%nprocshared=4
# B3LYP/6-311++G(d,p) empiricaldispersion=gd3bj scf=xqc pop=npa geom=check

CID_118540617_JID_2109_Energie_kation

1 2

--Link1--
%chk=JID_2109.chk
%mem=8GB
%nprocshared=4
# B3LYP/6-311++G(d,p) empiricaldispersion=gd3bj scf=xqc pop=npa geom=check

CID_118540617_JID_2109_Energie_anion

-1 2
