%chk=JID_9577.chk
%mem=8GB
%nprocshared=4
# opt freq B3LYP/6-31G(d) empiricaldispersion=gd3bj scf=xqc

CID_66257957_JID_9577_neutraal

0 1
C          0.96716       -0.09444       -0.00144
C          0.69129        0.58508        1.33117
N          1.35947        1.88584        1.36346
C          1.02839        2.66370        2.56706
C          1.61688        4.07270        2.48407
O          1.70959        4.53637        3.83571
C          2.03671        3.39847        4.64137
C          1.60266        2.16266        3.88317
C          0.73083        1.21909        4.68370
O          1.14675        0.06183        4.85754
N         -0.46961        1.45889        5.24310
C         -1.43600        2.54594        5.47411
C         -2.18495        3.05683        4.23960
C         -1.96868        4.52588        3.89292
C         -2.00433        5.46537        5.11042
C         -0.91576        5.02097        6.10111
C         -1.02552        3.56508        6.54614
C         -3.39180        5.46739        5.77680
C         -1.69658        6.90044        4.64117
H          0.59883        0.50924       -0.83787
H          0.46416       -1.06606       -0.04013
H          2.03946       -0.26442       -0.14640
H         -0.39145        0.70691        1.44789
H          1.05432       -0.06069        2.13636
H          2.36854        1.74727        1.29516
H         -0.05432        2.75257        2.62534
H          2.62806        4.07573        2.05885
H          0.99469        4.75641        1.89875
H          1.59878        3.50461        5.63267
H          3.12498        3.39954        4.77698
H          2.52260        1.59492        3.67383
H         -0.75259        0.59367        5.69403
H         -2.21636        1.96325        5.99135
H         -3.26100        2.93096        4.42727
H         -1.99310        2.42422        3.36671
H         -2.72660        4.82977        3.15923
H         -1.00593        4.63662        3.38727
H          0.06662        5.18168        5.64935
H         -0.93252        5.66277        6.99194
H         -1.78731        3.53471        7.33855
H         -0.10023        3.25936        7.04788
H         -3.67610        4.48210        6.15800
H         -3.41779        6.16291        6.62348
H         -4.16598        5.78036        5.06701
H         -1.69021        7.59971        5.48490
H         -0.71649        6.95899        4.15415
H         -2.44579        7.25050        3.92212

--Link1--
%chk=JID_9577.chk
%mem=8GB
%nprocshared=4
# B3LYP/6-311++G(d,p) empiricaldispersion=gd3bj scf=xqc pop=npa geom=check

CID_66257957_JID_9577_Energie_neutraal

0 1

--Link1--
%chk=JID_9577.chk
%mem=8GB
%nprocshared=4
# B3LYP/6-311++G(d,p) empiricaldispersion=gd3bj scf=xqc pop=npa geom=check

CID_66257957_JID_9577_Energie_kation

1 2

--Link1--
%chk=JID_9577.chk
%mem=8GB
%nprocshared=4
# B3LYP/6-311++G(d,p) empiricaldispersion=gd3bj scf=xqc pop=npa geom=check

CID_66257957_JID_9577_Energie_anion

-1 2
