%chk=JID_9561.chk
%mem=8GB
%nprocshared=4
# opt freq B3LYP/6-31G(d) empiricaldispersion=gd3bj scf=xqc

CID_143297358_JID_9561_neutraal

0 1
C          0.96012       -0.04680        0.07886
C          0.21274        1.00527       -0.72897
C          0.81365        1.25064       -2.11658
N          0.64600        0.08791       -2.98752
C          1.18086        0.30386       -4.33198
C          2.68460        0.20323       -4.39352
C          3.31644       -1.04736       -4.37773
C          4.70970       -1.11797       -4.39521
N          5.48101       -0.00281       -4.41555
C          4.85651        1.19396       -4.43824
C          3.48147        1.34738       -4.43010
C          5.43931       -2.39902       -4.37646
C          6.58894       -2.55485       -3.57958
C          7.29101       -3.76345       -3.54261
C          6.85672       -4.83836       -4.31762
C          5.72708       -4.71048       -5.12697
C          5.02603       -3.49892       -5.15218
C          7.59099       -6.11921       -4.29331
O          8.57307       -6.29694       -3.58374
H          0.87781       -1.03837       -0.37590
H          0.54258       -0.11004        1.08892
H          2.02134        0.20669        0.16693
H         -0.84153        0.71674       -0.81911
H          0.23332        1.94950       -0.17136
H          0.30366        2.11389       -2.56045
H          1.87152        1.51138       -2.00186
H          1.09638       -0.72587       -2.57318
H          0.75971       -0.46240       -4.99492
H          0.83576        1.26021       -4.74480
H          2.72103       -1.95443       -4.33206
H          5.51551        2.05737       -4.45971
H          3.04511        2.34063       -4.43820
H          6.94314       -1.71985       -2.97563
H          8.17422       -3.85644       -2.91408
H          5.38429       -5.53625       -5.74489
H          4.15968       -3.41277       -5.80562
H          7.20733       -6.91813       -4.94968

--Link1--
%chk=JID_9561.chk
%mem=8GB
%nprocshared=4
# B3LYP/6-311++G(d,p) empiricaldispersion=gd3bj scf=xqc pop=npa geom=check

CID_143297358_JID_9561_Energie_neutraal

0 1

--Link1--
%chk=JID_9561.chk
%mem=8GB
%nprocshared=4
# B3LYP/6-311++G(d,p) empiricaldispersion=gd3bj scf=xqc pop=npa geom=check

CID_143297358_JID_9561_Energie_kation

1 2

--Link1--
%chk=JID_9561.chk
%mem=8GB
%nprocshared=4
# B3LYP/6-311++G(d,p) empiricaldispersion=gd3bj scf=xqc pop=npa geom=check

CID_143297358_JID_9561_Energie_anion

-1 2
