%chk=JID_7319.chk
%mem=8GB
%nprocshared=4
# opt freq B3LYP/6-31G(d) empiricaldispersion=gd3bj scf=xqc

CID_61003145_JID_7319_neutraal

0 1
C          1.01245        0.07376        0.06636
C          1.02079       -0.35523        1.52368
O          1.94448        0.41576        2.29043
C          3.31023        0.01022        2.14538
C          3.70552       -1.11465        3.11647
N          3.22635       -2.44508        2.72270
C          4.01337       -3.05991        1.73611
C          5.03927       -3.97499        2.03545
C          5.77843       -4.54533        0.97914
C          5.49666       -4.12611       -0.32644
C          4.49052       -3.19463       -0.54186
N          3.76335       -2.66731        0.46601
C          4.16736       -2.73629       -1.93205
C          6.85777       -5.57035        1.18378
C          5.27492       -4.31946        3.45519
O          4.42446       -4.37824        4.32569
O          6.57744       -4.47345        3.75163
H          0.86544        1.15565       -0.01579
H          0.21137       -0.43390       -0.47891
H          1.95994       -0.15953       -0.42755
H          0.02911       -0.16369        1.94711
H          1.20392       -1.42747        1.61907
H          3.55637       -0.21136        1.10443
H          3.90108        0.89263        2.41679
H          4.79548       -1.12881        3.24270
H          3.27201       -0.89124        4.09856
H          3.14512       -3.06507        3.53335
H          6.05029       -4.52722       -1.17124
H          5.04091       -2.25729       -2.38487
H          3.86218       -3.58687       -2.54938
H          3.34736       -2.01096       -1.92289
H          7.08386       -6.09792        0.25036
H          7.77913       -5.09063        1.52751
H          6.54268       -6.33357        1.90238
H          6.58794       -4.64409        4.71713

--Link1--
%chk=JID_7319.chk
%mem=8GB
%nprocshared=4
# B3LYP/6-311++G(d,p) empiricaldispersion=gd3bj scf=xqc pop=npa geom=check

CID_61003145_JID_7319_Energie_neutraal

0 1

--Link1--
%chk=JID_7319.chk
%mem=8GB
%nprocshared=4
# B3LYP/6-311++G(d,p) empiricaldispersion=gd3bj scf=xqc pop=npa geom=check

CID_61003145_JID_7319_Energie_kation

1 2

--Link1--
%chk=JID_7319.chk
%mem=8GB
%nprocshared=4
# B3LYP/6-311++G(d,p) empiricaldispersion=gd3bj scf=xqc pop=npa geom=check

CID_61003145_JID_7319_Energie_anion

-1 2
