%chk=JID_3099.chk
%mem=8GB
%nprocshared=4
# opt freq B3LYP/6-31G(d) empiricaldispersion=gd3bj scf=xqc

CID_104985978_JID_3099_neutraal

0 1
C          0.91873       -0.01249        0.05691
C          0.58309       -0.83037        1.29986
C          0.49760        0.02565        2.57970
C         -0.64469        0.97103        2.48298
N         -1.53084        1.71760        2.39569
N          0.38674       -0.91418        3.71278
C          1.01013       -0.44585        4.96256
C          0.19722        0.63514        5.71275
C          0.78508        0.89796        7.12965
C          0.72215        2.40689        6.85171
C          0.59839        2.09642        5.35241
O         -1.20805        0.25775        5.64795
C         -2.19751        1.13629        6.16152
H          0.12753        0.70499       -0.18042
H          1.03622       -0.67509       -0.80669
H          1.85595        0.53708        0.19060
H         -0.35948       -1.36698        1.12845
H          1.36565       -1.59145        1.41930
H          1.43150        0.59569        2.66193
H         -0.60417       -1.08684        3.91644
H          1.07665       -1.32856        5.61136
H          2.04568       -0.12996        4.78691
H          0.17476        0.55818        7.97145
H          1.80672        0.52786        7.27769
H          1.61155        2.97391        7.14004
H         -0.15864        2.90043        7.27582
H          1.54871        2.18979        4.81345
H         -0.14537        2.70169        4.82891
H         -2.04470        1.30827        7.22970
H         -2.19807        2.08344        5.61730
H         -3.17443        0.66408        6.02676

--Link1--
%chk=JID_3099.chk
%mem=8GB
%nprocshared=4
# B3LYP/6-311++G(d,p) empiricaldispersion=gd3bj scf=xqc pop=npa geom=check

CID_104985978_JID_3099_Energie_neutraal

0 1

--Link1--
%chk=JID_3099.chk
%mem=8GB
%nprocshared=4
# B3LYP/6-311++G(d,p) empiricaldispersion=gd3bj scf=xqc pop=npa geom=check

CID_104985978_JID_3099_Energie_kation

1 2

--Link1--
%chk=JID_3099.chk
%mem=8GB
%nprocshared=4
# B3LYP/6-311++G(d,p) empiricaldispersion=gd3bj scf=xqc pop=npa geom=check

CID_104985978_JID_3099_Energie_anion

-1 2
