%chk=JID_8157.chk
%mem=8GB
%nprocshared=4
# opt freq B3LYP/6-31G(d) empiricaldispersion=gd3bj scf=xqc

CID_134895081_JID_8157_neutraal

0 1
C          1.07793        0.01604       -0.06058
O          0.23179        0.61495        0.91263
C          0.76097        0.80793        2.15866
C         -0.12394        1.35404        3.09029
C          0.28551        1.60129        4.40217
C          1.59508        1.30904        4.80259
C          2.48043        0.76124        3.86599
C          2.06640        0.51333        2.55163
C          2.03424        1.57738        6.21875
O          1.88460        2.95834        6.55726
C          2.92550        3.79788        6.04990
C          3.58332        4.49226        7.24848
C          2.59858        5.31261        8.07207
S          1.81369        6.56778        7.08621
O          0.67256        7.07251        7.82442
O          2.84609        7.47042        6.61169
C          1.20861        5.64410        5.69142
C          2.31198        4.80175        5.06621
H          0.50261       -0.08735       -0.98564
H          1.39109       -0.98609        0.25059
H          1.94280        0.65217       -0.27575
H         -1.14317        1.58746        2.79169
H         -0.42084        2.02887        5.11086
H          3.50315        0.52181        4.14917
H          2.78822        0.08998        1.86120
H          1.39128        1.00202        6.89468
H          3.06299        1.24806        6.40832
H          3.69262        3.21453        5.52512
H          4.40220        5.13058        6.89605
H          4.02268        3.73234        7.90597
H          3.11338        5.82235        8.89243
H          1.80924        4.68750        8.50091
H          0.37416        5.02708        6.03874
H          0.82044        6.36905        4.96927
H          3.10215        5.45130        4.67099
H          1.88375        4.26353        4.21337

--Link1--
%chk=JID_8157.chk
%mem=8GB
%nprocshared=4
# B3LYP/6-311++G(d,p) empiricaldispersion=gd3bj scf=xqc pop=npa geom=check

CID_134895081_JID_8157_Energie_neutraal

0 1

--Link1--
%chk=JID_8157.chk
%mem=8GB
%nprocshared=4
# B3LYP/6-311++G(d,p) empiricaldispersion=gd3bj scf=xqc pop=npa geom=check

CID_134895081_JID_8157_Energie_kation

1 2

--Link1--
%chk=JID_8157.chk
%mem=8GB
%nprocshared=4
# B3LYP/6-311++G(d,p) empiricaldispersion=gd3bj scf=xqc pop=npa geom=check

CID_134895081_JID_8157_Energie_anion

-1 2
