%chk=JID_6604.chk
%mem=8GB
%nprocshared=4
# opt freq B3LYP/6-31G(d) empiricaldispersion=gd3bj scf=xqc

CID_152132599_JID_6604_neutraal

0 1
C          0.91518       -0.04278        0.03124
O          0.21743        1.10957       -0.41784
C          1.07914        2.21529       -0.68181
C          0.73257        3.37737        0.24831
C          0.89124        3.05666        1.73893
C          2.33712        2.82216        2.19491
C          3.18441        4.09490        2.26327
C          2.70785        5.02449        3.35534
N          2.14195        6.14985        3.06434
C          1.70223        6.90869        4.12011
C          1.78122        6.58731        5.41942
C          2.46270        5.29371        5.72682
O          2.64514        4.86471        6.86091
N          2.88726        4.58654        4.63653
O          1.27431        7.44561        6.37934
C          0.71948        6.80487        7.52374
H          0.18650       -0.83875        0.20673
H          1.44025        0.15883        0.96852
H          1.62248       -0.38111       -0.73218
H          2.13795        1.94219       -0.61061
H          0.89658        2.52451       -1.71682
H          1.33078        4.25387       -0.02143
H         -0.31852        3.64605        0.08240
H          0.44647        3.87122        2.32224
H          0.29966        2.16559        1.98038
H          2.30620        2.35069        3.18483
H          2.83293        2.10346        1.53459
H          4.22199        3.81946        2.48798
H          3.18960        4.62254        1.30426
H          1.23099        7.84856        3.84215
H          3.34671        3.71049        4.83431
H          0.11609        5.93209        7.25057
H          1.50621        6.53602        8.23416
H          0.06026        7.52341        8.02032

--Link1--
%chk=JID_6604.chk
%mem=8GB
%nprocshared=4
# B3LYP/6-311++G(d,p) empiricaldispersion=gd3bj scf=xqc pop=npa geom=check

CID_152132599_JID_6604_Energie_neutraal

0 1

--Link1--
%chk=JID_6604.chk
%mem=8GB
%nprocshared=4
# B3LYP/6-311++G(d,p) empiricaldispersion=gd3bj scf=xqc pop=npa geom=check

CID_152132599_JID_6604_Energie_kation

1 2

--Link1--
%chk=JID_6604.chk
%mem=8GB
%nprocshared=4
# B3LYP/6-311++G(d,p) empiricaldispersion=gd3bj scf=xqc pop=npa geom=check

CID_152132599_JID_6604_Energie_anion

-1 2
