%chk=JID_7349.chk
%mem=8GB
%nprocshared=4
# opt freq B3LYP/6-31G(d) empiricaldispersion=gd3bj scf=xqc

CID_144293797_JID_7349_neutraal

0 1
C          1.06208       -0.05698       -0.05385
C          0.54542       -0.46951       -1.41367
C          3.87174        0.57687        3.56871
C          2.45000        1.10246        3.62136
O          2.44682        2.53855        3.61264
C          2.49324        3.12927        2.38641
O          2.54489        2.53617        1.31911
C          2.40656        4.62435        2.53144
C          3.51943        5.19003        3.41177
C          3.80970        6.53518        2.79969
O          4.49961        7.40375        3.30689
N          3.19646        6.58694        1.56077
C          2.60508        5.32464        1.19599
C          3.35686        7.68943        0.62735
C          4.73957        7.79225       -0.04227
C          5.06620        6.61044       -0.94552
O          4.78996        8.98402       -0.83612
H          0.84843       -0.83095        0.68935
H          0.58383        0.87176        0.27027
H          2.14421        0.09959       -0.08593
H          1.01695       -1.40205       -1.73761
H         -0.53734       -0.62357       -1.38271
H          0.76221        0.30297       -2.15751
H          4.36753        0.87496        2.63963
H          3.88361       -0.51475        3.63551
H          4.46409        0.98800        4.39262
H          1.84229        0.70073        2.80325
H          1.97572        0.78806        4.55682
H          1.42205        4.88410        2.94024
H          4.42964        4.58197        3.38678
H          3.18333        5.31018        4.44563
H          3.28891        4.79658        0.52517
H          1.65354        5.49183        0.68152
H          2.55952        7.63800       -0.12356
H          3.18447        8.61612        1.18961
H          5.51973        7.88423        0.72075
H          4.27791        6.45591       -1.69048
H          5.99111        6.79937       -1.50160
H          5.19619        5.68868       -0.37293
H          4.16741        8.88368       -1.57593

--Link1--
%chk=JID_7349.chk
%mem=8GB
%nprocshared=4
# B3LYP/6-311++G(d,p) empiricaldispersion=gd3bj scf=xqc pop=npa geom=check

CID_144293797_JID_7349_Energie_neutraal

0 1

--Link1--
%chk=JID_7349.chk
%mem=8GB
%nprocshared=4
# B3LYP/6-311++G(d,p) empiricaldispersion=gd3bj scf=xqc pop=npa geom=check

CID_144293797_JID_7349_Energie_kation

1 2

--Link1--
%chk=JID_7349.chk
%mem=8GB
%nprocshared=4
# B3LYP/6-311++G(d,p) empiricaldispersion=gd3bj scf=xqc pop=npa geom=check

CID_144293797_JID_7349_Energie_anion

-1 2
