%chk=JID_10899.chk
%mem=8GB
%nprocshared=4
# opt freq B3LYP/6-31G(d) empiricaldispersion=gd3bj scf=xqc

CID_66274103_JID_10899_neutraal

0 1
C          2.49200        0.00400       -0.01400
C          1.05678       -0.02707        0.42193
C          0.44524       -1.27718        0.61059
C         -0.89611       -1.37010        0.98957
C         -1.65006       -0.21564        1.18485
C         -1.06074        1.03428        1.00895
C          0.28866        1.12700        0.64308
C          0.83526        2.48949        0.47278
O          0.53363        3.10835       -0.54779
C          1.61909        3.13481        1.60731
N          2.07123        2.23640        2.64168
C          1.33075        1.82618        3.76952
O          0.19032        2.15017        4.05786
N          2.17739        0.99347        4.45365
C          2.01816        0.28594        5.60330
C          3.05079       -0.45667        6.03614
N          4.27400       -0.55244        5.39648
C          4.41840        0.12910        4.29650
C          3.32400        0.97178        3.74234
N          3.34541        1.68327        2.65731
H          3.12981       -0.43435        0.75996
H          2.61290       -0.57325       -0.93713
H          2.85107        1.01579       -0.21992
H          1.01175       -2.19258        0.44835
H         -1.35621       -2.34657        1.12128
H         -2.69682       -0.28791        1.46912
H         -1.65412        1.93410        1.15658
H          2.49704        3.63087        1.18092
H          0.96762        3.88485        2.06828
H          1.06423        0.35328        6.11349
H          2.95546       -1.03643        6.95171
H          5.35619        0.11631        3.72092

--Link1--
%chk=JID_10899.chk
%mem=8GB
%nprocshared=4
# B3LYP/6-311++G(d,p) empiricaldispersion=gd3bj scf=xqc pop=npa geom=check

CID_66274103_JID_10899_Energie_neutraal

0 1

--Link1--
%chk=JID_10899.chk
%mem=8GB
%nprocshared=4
# B3LYP/6-311++G(d,p) empiricaldispersion=gd3bj scf=xqc pop=npa geom=check

CID_66274103_JID_10899_Energie_kation

1 2

--Link1--
%chk=JID_10899.chk
%mem=8GB
%nprocshared=4
# B3LYP/6-311++G(d,p) empiricaldispersion=gd3bj scf=xqc pop=npa geom=check

CID_66274103_JID_10899_Energie_anion

-1 2
