%chk=JID_9644.chk
%mem=8GB
%nprocshared=4
# opt freq B3LYP/6-31G(d) empiricaldispersion=gd3bj scf=xqc

CID_147421580_JID_9644_neutraal

0 1
C          1.53600       -0.75500        0.09900
C          1.67768        0.68241       -0.34598
O          0.32903        1.11622       -0.56317
C         -0.44777        0.00430       -0.77603
O         -1.60404        0.09787       -1.15464
N          0.27248       -1.13752       -0.45576
C         -0.17539       -2.47970       -0.52346
C          0.55494       -3.51016        0.08279
C          0.13740       -4.84991        0.01053
C         -1.02194       -5.19656       -0.67333
C         -1.74432       -4.17524       -1.29835
C         -1.33449       -2.83657       -1.21535
N         -1.50998       -6.50282       -0.84367
C         -1.20930       -7.70314       -0.27334
O         -1.70033       -8.72177       -0.77485
C         -0.32404       -7.82610        0.96083
O          1.05036       -7.96813        0.64567
C          2.35874        1.59208        0.67976
N          3.73349        1.19441        0.98077
H          1.47429       -0.84671        1.18964
H          2.35779       -1.36992       -0.28155
H          2.19947        0.74532       -1.30962
H          1.46980       -3.30782        0.63268
H          0.78634       -5.58537        0.46852
H         -2.64919       -4.39670       -1.86071
H         -1.93988       -2.09693       -1.73225
H         -2.22138       -6.61744       -1.55770
H         -0.47232       -6.97796        1.63402
H         -0.64053       -8.71446        1.51945
H          1.11924       -8.76358        0.08548
H          2.36197        2.61633        0.28796
H          1.77372        1.63245        1.60651
H          4.19431        1.95471        1.48470
H          3.74126        0.40483        1.62622

--Link1--
%chk=JID_9644.chk
%mem=8GB
%nprocshared=4
# B3LYP/6-311++G(d,p) empiricaldispersion=gd3bj scf=xqc pop=npa geom=check

CID_147421580_JID_9644_Energie_neutraal

0 1

--Link1--
%chk=JID_9644.chk
%mem=8GB
%nprocshared=4
# B3LYP/6-311++G(d,p) empiricaldispersion=gd3bj scf=xqc pop=npa geom=check

CID_147421580_JID_9644_Energie_kation

1 2

--Link1--
%chk=JID_9644.chk
%mem=8GB
%nprocshared=4
# B3LYP/6-311++G(d,p) empiricaldispersion=gd3bj scf=xqc pop=npa geom=check

CID_147421580_JID_9644_Energie_anion

-1 2
