%chk=JID_2457.chk
%mem=8GB
%nprocshared=4
# opt freq B3LYP/6-31G(d) empiricaldispersion=gd3bj scf=xqc

CID_154027835_JID_2457_neutraal

0 1
C          0.95305       -0.00223       -0.08826
C          1.02146       -1.48809       -0.23249
C          0.42527       -2.42550        0.52674
C         -0.46108       -2.26559        1.76846
C         -1.88750       -1.95047        1.26348
C         -0.53632       -3.63272        2.49600
C          0.09519       -1.25015        2.78594
C         -0.69406       -0.23454        3.35302
C         -0.15655        0.67054        4.27403
C          1.17883        0.57618        4.65336
C          1.97851       -0.42658        4.11624
C          1.44159       -1.33129        3.19735
H          0.13414        0.33291        0.55013
H          0.79322        0.45010       -1.07267
H          1.89670        0.38111        0.31083
H          1.62590       -1.83180       -1.07141
H          0.58718       -3.45843        0.21431
H         -2.22044       -2.68808        0.52227
H         -2.61915       -1.97081        2.08000
H         -1.94535       -0.96423        0.78860
H          0.45387       -3.99373        2.79947
H         -1.15221       -3.56723        3.40141
H         -0.97815       -4.40481        1.85399
H         -1.74112       -0.11904        3.08797
H         -0.78530        1.45169        4.69354
H          1.59469        1.28243        5.36641
H          3.02223       -0.50633        4.40773
H          2.09206       -2.10242        2.78880

--Link1--
%chk=JID_2457.chk
%mem=8GB
%nprocshared=4
# B3LYP/6-311++G(d,p) empiricaldispersion=gd3bj scf=xqc pop=npa geom=check

CID_154027835_JID_2457_Energie_neutraal

0 1

--Link1--
%chk=JID_2457.chk
%mem=8GB
%nprocshared=4
# B3LYP/6-311++G(d,p) empiricaldispersion=gd3bj scf=xqc pop=npa geom=check

CID_154027835_JID_2457_Energie_kation

1 2

--Link1--
%chk=JID_2457.chk
%mem=8GB
%nprocshared=4
# B3LYP/6-311++G(d,p) empiricaldispersion=gd3bj scf=xqc pop=npa geom=check

CID_154027835_JID_2457_Energie_anion

-1 2
