%chk=JID_8694.chk
%mem=8GB
%nprocshared=4
# opt freq B3LYP/6-31G(d) empiricaldispersion=gd3bj scf=xqc

CID_79958270_JID_8694_neutraal

0 1
C          1.02672       -0.07278        0.06316
C          0.71502       -0.16787       -1.42959
C          0.47147        1.24006       -2.00330
N          0.10328        1.31718       -3.42461
C          1.23813        1.00369       -4.27808
C          1.66848       -0.44776       -4.47569
C          1.56017       -1.39419       -3.28902
O          1.85816       -0.79057       -2.03809
C         -1.31448        1.19456       -3.88269
C         -1.54376        2.19106       -5.10293
C         -1.69487        1.71520       -6.58482
C         -2.45522        0.38923       -6.71388
S         -1.63944       -0.94806       -5.81915
C         -1.80970       -0.25497       -4.15841
C         -0.34928        1.64231       -7.33658
C         -2.52771        2.79438       -7.33025
C         -2.31408        1.75649       -2.74913
N         -2.49480        0.94856       -1.53116
H          1.21973       -1.06927        0.47546
H          0.19628        0.37672        0.61612
H          1.93053        0.52084        0.24021
H         -0.16930       -0.80437       -1.53953
H         -0.22032        1.80141       -1.37198
H          1.40513        1.80898       -1.87876
H          2.11537        1.53593       -3.88055
H          1.12344        1.48133       -5.24894
H          2.72610       -0.41742       -4.77354
H          1.15506       -0.89403       -5.33070
H          2.28933       -2.20057       -3.43139
H          0.58646       -1.89228       -3.25820
H         -2.46503        2.75013       -4.88533
H         -0.77976        2.98217       -5.06657
H         -2.53310        0.08976       -7.76535
H         -3.48008        0.48438       -6.33651
H         -1.36656       -0.95824       -3.45133
H         -2.88855       -0.31553       -3.96818
H         -0.51004        1.50429       -8.41296
H          0.22479        2.56723       -7.21213
H          0.27467        0.80637       -7.01604
H         -3.52901        2.89680       -6.89607
H         -2.03862        3.77403       -7.27999
H         -2.65696        2.53911       -8.38854
H         -1.98963        2.76354       -2.45567
H         -3.31670        1.87756       -3.18071
H         -3.08197        1.46748       -0.87753
H         -3.00805        0.09519       -1.74581

--Link1--
%chk=JID_8694.chk
%mem=8GB
%nprocshared=4
# B3LYP/6-311++G(d,p) empiricaldispersion=gd3bj scf=xqc pop=npa geom=check

CID_79958270_JID_8694_Energie_neutraal

0 1

--Link1--
%chk=JID_8694.chk
%mem=8GB
%nprocshared=4
# B3LYP/6-311++G(d,p) empiricaldispersion=gd3bj scf=xqc pop=npa geom=check

CID_79958270_JID_8694_Energie_kation

1 2

--Link1--
%chk=JID_8694.chk
%mem=8GB
%nprocshared=4
# B3LYP/6-311++G(d,p) empiricaldispersion=gd3bj scf=xqc pop=npa geom=check

CID_79958270_JID_8694_Energie_anion

-1 2
